21
Coordinates from ORCA-job Keton-CLi E -506.680252672300
  C      -2.695676      1.418975     -0.059841
  C      -2.894149      0.050509      0.076116
  C      -1.793861     -0.784212      0.207884
  C      -0.509286     -0.280535      0.204405
  C      -0.297136      1.091477      0.062058
  C      -1.398025      1.924674     -0.064600
  H      -1.255341      2.990704     -0.182836
  H      -3.884895     -0.375054      0.084664
  H      -1.953817     -1.846661      0.320769
  H       0.332755     -0.943265      0.326549
  O      -3.692344      2.346834     -0.192329
  C      -5.033244      1.903237     -0.183435
  H      -5.233741      1.221482     -1.015365
  H      -5.636140      2.802384     -0.297822
  H      -5.284051      1.412694      0.762037
  C       1.069657      1.674307      0.060804
  C       2.095225      1.009924     -0.486472
  H       3.084202      1.436605     -0.499941
  Li      1.303403      4.325372      1.224545
  H       1.961466      0.054363     -0.956688
  O       1.197909      2.876434      0.609496
21
Coordinates from ORCA-job Keton-CLi E -506.682731580981
  C      -2.697501      1.437066     -0.046119
  C      -2.909978      0.060322      0.058162
  C      -1.805983     -0.788281      0.169384
  C      -0.510143     -0.287576      0.173731
  C      -0.289929      1.095728      0.061331
  C      -1.393062      1.943065     -0.039145
  H      -1.245637      3.016374     -0.120079
  H      -3.911171     -0.357688      0.061951
  H      -1.972580     -1.858188      0.263538
  H       0.334851     -0.960680      0.280119
  O      -3.698050      2.367019     -0.157755
  C      -5.043788      1.895998     -0.163636
  H      -5.228820      1.228052     -1.014282
  H      -5.668159      2.785886     -0.256482
  H      -5.286457      1.373035      0.769986
  C       1.086728      1.678077      0.064421
  C       2.133025      0.981618     -0.441132
  H       3.131642      1.408873     -0.451717
  Li      1.262936      4.392236      1.101618
  H       2.004375     -0.006539     -0.868661
  O       1.190607      2.905850      0.554769
21
Coordinates from ORCA-job Keton-CLi E -506.683472377566
  C      -2.697353      1.446140     -0.033650
  C      -2.918507      0.065004      0.039160
  C      -1.811865     -0.790697      0.124182
  C      -0.511537     -0.291988      0.130604
  C      -0.286996      1.097523      0.051397
  C      -1.390773      1.952718     -0.018947
  H      -1.240608      3.027738     -0.067205
  H      -3.922538     -0.346838      0.040999
  H      -1.980610     -1.863042      0.198206
  H       0.332802     -0.970115      0.218080
  O      -3.699547      2.380392     -0.120569
  C      -5.048854      1.893180     -0.137095
  H      -5.222443      1.241456     -1.002511
  H      -5.682568      2.778201     -0.209735
  H      -5.281864      1.345381      0.784543
  C       1.093613      1.683936      0.057619
  C       2.158780      0.954963     -0.379785
  H       3.160249      1.379748     -0.378609
  Li      1.218091      4.453615      0.967160
  H       2.037910     -0.058043     -0.751913
  O       1.177528      2.930978      0.488068
21
Coordinates from ORCA-job Keton-CLi E -506.683851501510
  C      -2.696931      1.446333     -0.021553
  C      -2.922507      0.064413      0.027881
  C      -1.814640     -0.793298      0.093233
  C      -0.513971     -0.296266      0.101073
  C      -0.286257      1.095168      0.048102
  C      -1.390221      1.952784     -0.000754
  H      -1.238524      3.027446     -0.029836
  H      -3.926886     -0.344353      0.026847
  H      -1.983468     -1.866437      0.150282
  H       0.327930     -0.978043      0.174423
  O      -3.698419      2.385363     -0.091941
  C      -5.050801      1.894051     -0.120166
  H      -5.215063      1.254615     -0.995683
  H      -5.683883      2.779732     -0.182232
  H      -5.281645      1.332545      0.792955
  C       1.095880      1.686538      0.057009
  C       2.170997      0.941505     -0.335276
  H       3.170961      1.368684     -0.330599
  Li      1.193631      4.497241      0.867978
  H       2.055869     -0.083375     -0.672379
  O       1.170854      2.945604      0.440636
21
Coordinates from ORCA-job Keton-CLi E -506.684279136399
  C      -2.696741      1.441754     -0.007587
  C      -2.925487      0.060936      0.006036
  C      -1.816342     -0.796728      0.043916
  C      -0.517314     -0.301710      0.059794
  C      -0.286070      1.089833      0.042895
  C      -1.390448      1.947181      0.020783
  H      -1.237295      3.021095      0.016808
  H      -3.929580     -0.345989     -0.001876
  H      -1.983961     -1.870661      0.071238
  H       0.320336     -0.989306      0.111481
  O      -3.695999      2.387550     -0.047813
  C      -5.052155      1.898062     -0.090130
  H      -5.209622      1.280517     -0.981414
  H      -5.679199      2.788473     -0.132519
  H      -5.280595      1.316520      0.810022
  C       1.095636      1.689108      0.056153
  C       2.183155      0.925161     -0.260838
  H       3.179117      1.358951     -0.252356
  Li      1.163565      4.560574      0.711234
  H       2.079726     -0.115879     -0.542497
  O       1.162179      2.964808      0.366669
21
Coordinates from ORCA-job Keton-CLi E -506.684453598450
  C      -2.697004      1.437296     -0.000872
  C      -2.926310      0.058431     -0.017000
  C      -1.817271     -0.798950      0.000638
  C      -0.519357     -0.306177      0.027555
  C      -0.285692      1.084207      0.037491
  C      -1.390264      1.940131      0.031557
  H      -1.236021      3.013632      0.046196
  H      -3.930207     -0.348435     -0.033426
  H      -1.984395     -1.873036      0.000945
  H       0.314361     -0.998986      0.061592
  O      -3.693846      2.386511     -0.012623
  C      -5.051310      1.903012     -0.060423
  H      -5.213130      1.306709     -0.965008
  H      -5.673125      2.797731     -0.080346
  H      -5.277045      1.303196      0.828167
  C       1.094111      1.687506      0.058665
  C       2.190924      0.915063     -0.192470
  H       3.182578      1.357402     -0.181972
  Li      1.139422      4.606445      0.572277
  H       2.102166     -0.138409     -0.425953
  O       1.154324      2.976972      0.305011
21
Coordinates from ORCA-job Keton-CLi E -506.684504882146
  C      -2.698211      1.436877     -0.001702
  C      -2.925738      0.058353     -0.020948
  C      -1.817020     -0.798791     -0.007631
  C      -0.519149     -0.306127      0.018874
  C      -0.285829      1.083959      0.031683
  C      -1.390916      1.938658      0.027783
  H      -1.237105      3.012371      0.042559
  H      -3.929344     -0.350019     -0.038554
  H      -1.983899     -1.872937     -0.012373
  H       0.313736     -1.000355      0.047007
  O      -3.694744      2.385011     -0.007940
  C      -5.050757      1.904443     -0.052338
  H      -5.219829      1.312495     -0.958802
  H      -5.672572      2.799548     -0.065528
  H      -5.275635      1.300956      0.834320
  C       1.092893      1.686095      0.053036
  C       2.192160      0.912998     -0.176247
  H       3.182852      1.357607     -0.160609
  Li      1.137514      4.614848      0.550663
  H       2.110928     -0.144385     -0.395201
  O       1.153572      2.978644      0.291947
21
Coordinates from ORCA-job Keton-CLi E -506.684525220641
  C      -2.698994      1.437557     -0.002610
  C      -2.925270      0.058810     -0.021770
  C      -1.817310     -0.798975     -0.008879
  C      -0.518901     -0.306533      0.017628
  C      -0.285843      1.083657      0.031337
  C      -1.390974      1.938086      0.026451
  H      -1.237344      3.012028      0.040706
  H      -3.928712     -0.350635     -0.040515
  H      -1.984649     -1.873089     -0.014706
  H       0.313453     -1.001630      0.043608
  O      -3.695446      2.384121     -0.008726
  C      -5.049551      1.905700     -0.050611
  H      -5.225147      1.315934     -0.957699
  H      -5.672953      2.800044     -0.059744
  H      -5.275257      1.299808      0.834602
  C       1.092417      1.682865      0.055682
  C       2.192909      0.912861     -0.172408
  H       3.182630      1.360036     -0.157232
  Li      1.136882      4.617218      0.544085
  H       2.118029     -0.145609     -0.389753
  O       1.152940      2.977995      0.290556
21
Coordinates from ORCA-job Keton-CLi E -506.684527843808
  C      -2.699241      1.438391     -0.004002
  C      -2.925305      0.059261     -0.020687
  C      -1.817364     -0.798694     -0.006068
  C      -0.518796     -0.305893      0.019782
  C      -0.286081      1.084620      0.031031
  C      -1.391219      1.939157      0.025039
  H      -1.237809      3.013159      0.038135
  H      -3.928703     -0.350410     -0.038578
  H      -1.984778     -1.872837     -0.009323
  H       0.313893     -1.000591      0.047379
  O      -3.696137      2.384226     -0.012521
  C      -5.049683      1.905230     -0.052302
  H      -5.226833      1.313972     -0.958250
  H      -5.674517      2.798636     -0.061918
  H      -5.274925      1.300033      0.833616
  C       1.092497      1.682727      0.054386
  C       2.192824      0.913022     -0.177064
  H       3.182897      1.359537     -0.160664
  Li      1.139858      4.614664      0.554770
  H       2.118411     -0.145029     -0.397244
  O       1.153920      2.977069      0.294484
21
Coordinates from ORCA-job Keton-CLi E -506.684528502545
  C      -2.699224      1.438682     -0.004760
  C      -2.925390      0.059406     -0.020839
  C      -1.817440     -0.798648     -0.005214
  C      -0.518856     -0.305702      0.020904
  C      -0.286255      1.084951      0.031440
  C      -1.391292      1.939648      0.024827
  H      -1.237917      3.013653      0.037905
  H      -3.928789     -0.350209     -0.038714
  H      -1.984923     -1.872784     -0.007523
  H       0.314039     -1.000093      0.049642
  O      -3.696336      2.384342     -0.014533
  C      -5.049747      1.905024     -0.052856
  H      -5.227766      1.313132     -0.958258
  H      -5.675210      2.797994     -0.062366
  H      -5.274297      1.300001      0.833383
  C       1.092542      1.682643      0.054769
  C       2.192788      0.913022     -0.178778
  H       3.182978      1.359321     -0.162281
  Li      1.141179      4.613954      0.557859
  H       2.118583     -0.144736     -0.400585
  O       1.154241      2.976648      0.295981
