! PW6B95 D3BJ def2-QZVP RIJK def2/JK tightSCF CPCM(THF)
! sp Pal4

* xyz 0 1  
C   3.12926546088082     -1.71706853041474     -1.17900329917865
  C   3.11367979317611     -2.43009612132795     -2.38760531275860
  C   3.96988264858153     -3.52223461280417     -2.55175801623749
  C   4.83049464158970     -3.91966014348605     -1.53484663937308
  C   4.85178452674346     -3.20079487878844     -0.32413795918178
  C   4.00021736412788     -2.10150046357587     -0.15709507287045
  H   4.01713494666655     -1.54449215912897      0.77371639308716
  H   2.44707242586543     -2.14563716413254     -3.19365501659456
  H   3.95506907962075     -4.06728040595774     -3.49103572397449
  H   5.48476174053602     -4.76950544456311     -1.68790354633009
  C   5.76969208070592     -3.55184820138845      0.78678081243419
  O   2.33477112014698     -0.63805292748023     -0.91398213420864
  C   1.43446828293377     -0.20853129988067     -1.95213707020546
  H   1.99044846402550      0.08367720265159     -2.84987126369524
  H   0.91057402503305      0.65330150906131     -1.53956098057724
  H   0.71926421964780     -1.00168433055084     -2.19669259251701
  C   6.67035816579865     -4.73176024707481      0.70352994753873
  O   5.85066291870078     -2.79321635478204      1.78171492744812
  C   8.18106111261305     -4.22474647030526      0.41761914447059
  O   8.65236601949984     -3.44163055241772      1.42183471461372
  Li  7.57292153172249     -2.70845031863755      2.58807503816377
  C   8.98150237467747     -5.50606557627842      0.18098535189537
  C   8.89506567770288     -6.18923890861860     -1.03849588447505
  C   9.80309579374050     -6.02223534651537      1.18733345723098
  C   10.50741647417754     -7.20671169848472      0.98972216364738
  C   10.43679709743294     -7.87547439343579     -0.24048225478385
  C   9.62287228527718     -7.35413820523435     -1.25833291010151
  C   11.15924590236128     -9.16991489526802     -0.38404493325393
  O   11.83762333609010     -9.44330928380064     -1.52852819949683
  O   11.15486972022078    -10.02501892526530      0.48859802919551
  C   12.20544218060004     -8.39601359881328     -2.46902192739469
  H   11.48442053028688     -8.37030257786323     -3.28850576679978
  H   13.18942786182155     -8.68041787221541     -2.84379190039059
  H   12.25346053445675     -7.42647106090101     -1.97126103074082
  H   9.53918571722684     -7.87092742839576     -2.20927757267524
  H   8.25492262334425     -5.79992524483210     -1.82775738701802
  H   11.12940544413752     -7.61682940776498      1.78023419512565
  H   9.87804594582639     -5.47622534586346      2.12282118440167
  H   6.36514176794343     -5.45046348173156     -0.05639891020263
  H   6.71346194178723     -5.22794369625348      1.67821597910151
  H   8.13316933105585     -3.69709813376802     -0.55850974409486
*
