38
Coordinates from ORCA-job MA_freqopt E -997.035825062482
  C      -3.331944      0.362616     -0.066384
  C      -2.637707     -0.790630      0.300206
  C      -1.261537     -0.725126      0.513242
  C      -0.597971      0.474254      0.357460
  C      -1.293041      1.635368      0.015041
  C      -2.667567      1.562426     -0.206590
  H      -3.209570      2.449992     -0.494315
  H      -0.722642     -1.616987      0.790309
  H       0.467823      0.523886      0.522836
  C      -0.553781      2.884957     -0.167542
  H       0.281188      2.816362     -0.855783
  C      -0.797370      4.062617      0.420573
  H      -4.396101      0.294212     -0.234827
  C      -3.389240     -2.055071      0.443097
  O      -2.614466     -3.083411      0.808299
  C      -3.255713     -4.346802      0.963374
  H      -2.458586     -5.064399      1.137854
  H      -3.817521     -4.597521      0.061362
  H      -3.943495     -4.317884      1.811004
  O      -4.581832     -2.170310      0.248064
  C      -1.820950      4.304491      1.450302
  H      -0.198389      4.917412      0.145650
  C      -2.050688      5.732826      1.803334
  O      -2.456216      3.415277      1.995373
  C      -1.010304      6.654531      1.928548
  C      -1.295720      7.956871      2.289016
  C      -2.600183      8.371700      2.508528
  C      -3.644358      7.458718      2.389414
  C      -3.355163      6.137157      2.051297
  H      -4.164010      5.427070      1.973742
  H      -2.787677      9.398958      2.776426
  H       0.014628      6.350264      1.788168
  H      -0.492377      8.669487      2.400529
  O      -4.959056      7.746145      2.582779
  C      -5.322593      9.065557      2.937796
  H      -4.878303      9.356706      3.894194
  H      -6.406867      9.050609      3.031078
  H      -5.033021      9.780395      2.161915
38
Coordinates from ORCA-job MA_freqopt E -997.039491853579
  C      -3.310849      0.303583     -0.112501
  C      -2.626775     -0.856367      0.275589
  C      -1.255493     -0.786367      0.553205
  C      -0.586010      0.424660      0.440685
  C      -1.274679      1.595345      0.088670
  C      -2.644410      1.514939     -0.201787
  H      -3.180517      2.407983     -0.504957
  H      -0.720425     -1.683286      0.843674
  H       0.479607      0.474268      0.646800
  C      -0.525186      2.855127     -0.057939
  H       0.338263      2.786948     -0.720097
  C      -0.781534      4.050748      0.508587
  H      -4.370350      0.234222     -0.337052
  C      -3.386039     -2.128786      0.366371
  O      -2.621311     -3.163438      0.767363
  C      -3.280242     -4.437770      0.882474
  H      -2.493379     -5.156484      1.106573
  H      -3.784352     -4.690940     -0.053908
  H      -4.018172     -4.409220      1.689390
  O      -4.578181     -2.241667      0.121138
  C      -1.823802      4.338464      1.522054
  H      -0.162439      4.895987      0.223793
  C      -2.068411      5.786626      1.812944
  O      -2.460638      3.468687      2.115082
  C      -1.039520      6.741979      1.800402
  C      -1.330486      8.061875      2.122270
  C      -2.632572      8.460091      2.426260
  C      -3.661201      7.511405      2.431014
  C      -3.368080      6.175269      2.137765
  H      -4.166754      5.439761      2.159355
  H      -2.831750      9.501095      2.656958
  H      -0.016988      6.452537      1.579934
  H      -0.535638      8.801959      2.133793
  O      -4.965629      7.790585      2.710595
  C      -5.308722      9.140590      3.023683
  H      -4.783984      9.484333      3.923372
  H      -6.383735      9.135977      3.207268
  H      -5.081937      9.812002      2.186546
38
Coordinates from ORCA-job MA_freqopt E -997.040321660339
  C      -3.299240      0.326024     -0.002297
  C      -2.621643     -0.861847      0.315610
  C      -1.236855     -0.826473      0.542263
  C      -0.546357      0.378348      0.447606
  C      -1.226338      1.575563      0.161750
  C      -2.611928      1.530439     -0.072573
  H      -3.143558      2.446403     -0.314960
  H      -0.706222     -1.742486      0.781608
  H       0.529021      0.399793      0.610720
  C      -0.459382      2.829549      0.031274
  H       0.417855      2.755594     -0.614407
  C      -0.714310      4.034922      0.582155
  H      -4.368976      0.286906     -0.187624
  C      -3.406024     -2.122180      0.391365
  O      -2.638874     -3.190970      0.704803
  C      -3.330357     -4.461875      0.771831
  H      -2.552189     -5.204783      0.943474
  H      -3.856479     -4.657271     -0.165855
  H      -4.047589     -4.455211      1.597400
  O      -4.608287     -2.206501      0.169763
  C      -1.787374      4.353254      1.556289
  H      -0.072462      4.864876      0.299454
  C      -2.060389      5.808330      1.801806
  O      -2.469823      3.492247      2.120461
  C      -1.056775      6.792728      1.713948
  C      -1.371659      8.117251      2.008375
  C      -2.674312      8.490338      2.355677
  C      -3.675540      7.509919      2.430148
  C      -3.359847      6.171635      2.167439
  H      -4.136021      5.414362      2.244441
  H      -2.896430      9.532374      2.562937
  H      -0.036203      6.525020      1.456960
  H      -0.597158      8.879504      1.965843
  O      -4.977417      7.768153      2.751817
  C      -5.330609      9.132528      3.031468
  H      -4.770232      9.513772      3.893813
  H      -6.396780      9.119796      3.260372
  H      -5.145557      9.772691      2.160213
38
Coordinates from ORCA-job MA_freqopt E -997.040779396345
  C      -3.269969      0.302600      0.003339
  C      -2.599646     -0.895181      0.304159
  C      -1.218967     -0.868403      0.558643
  C      -0.523607      0.337717      0.505668
  C      -1.196213      1.544444      0.237127
  C      -2.579134      1.507756     -0.023044
  H      -3.104088      2.429939     -0.253317
  H      -0.692493     -1.789577      0.785895
  H       0.548929      0.351114      0.685168
  C      -0.421705      2.796982      0.146523
  H       0.502932      2.713574     -0.427417
  C      -0.706233      4.018030      0.649445
  H      -4.334925      0.272814     -0.207116
  C      -3.389508     -2.154200      0.329237
  O      -2.634133     -3.230106      0.659400
  C      -3.353731     -4.494507      0.706017
  H      -2.591985     -5.244190      0.916579
  H      -3.838227     -4.686431     -0.253577
  H      -4.102113     -4.466371      1.501679
  O      -4.592921     -2.225907      0.106058
  C      -1.842643      4.377093      1.532176
  H      -0.029836      4.827069      0.390556
  C      -2.104531      5.838119      1.758554
  O      -2.534452      3.532178      2.114814
  C      -1.114065      6.827392      1.583517
  C      -1.419647      8.158099      1.865573
  C      -2.700865      8.531564      2.288840
  C      -3.687926      7.543689      2.449004
  C      -3.382390      6.201635      2.198012
  H      -4.144784      5.440952      2.340043
  H      -2.918688      9.575125      2.487058
  H      -0.111054      6.562266      1.267084
  H      -0.655487      8.923750      1.756643
  O      -4.970779      7.803511      2.846866
  C      -5.307132      9.181848      3.114048
  H      -4.688448      9.580637      3.926022
  H      -6.355443      9.173892      3.411854
  H      -5.176409      9.793802      2.214237
38
Coordinates from ORCA-job MA_freqopt E -997.041283006534
  C      -3.265811      0.299601      0.043030
  C      -2.600010     -0.905859      0.319318
  C      -1.220432     -0.889694      0.571020
  C      -0.521853      0.313831      0.541444
  C      -1.189936      1.528493      0.304841
  C      -2.571930      1.501484      0.042217
  H      -3.092351      2.427295     -0.174978
  H      -0.695783     -1.816063      0.775932
  H       0.550490      0.318754      0.716570
  C      -0.405065      2.772519      0.236634
  H       0.541062      2.673681     -0.296259
  C      -0.682260      4.003282      0.721516
  H      -4.329249      0.278620     -0.171366
  C      -3.393544     -2.161480      0.315600
  O      -2.640426     -3.248848      0.610551
  C      -3.369665     -4.510147      0.618688
  H      -2.613505     -5.267146      0.821346
  H      -3.840495     -4.673250     -0.352381
  H      -4.126525     -4.492576      1.405536
  O      -4.594451     -2.224818      0.086689
  C      -1.819286      4.395065      1.585693
  H       0.021015      4.789657      0.470225
  C      -2.093147      5.859046      1.764906
  O      -2.530859      3.566818      2.167491
  C      -1.136978      6.860610      1.500656
  C      -1.460161      8.194408      1.738381
  C      -2.725517      8.558808      2.208854
  C      -3.679452      7.558438      2.459686
  C      -3.356126      6.215329      2.249268
  H      -4.091215      5.445221      2.458475
  H      -2.956836      9.604029      2.374293
  H      -0.145097      6.607323      1.147317
  H      -0.721462      8.970041      1.557955
  O      -4.947524      7.805193      2.911599
  C      -5.306332      9.185505      3.140414
  H      -4.658931      9.629227      3.904296
  H      -6.337948      9.160481      3.489313
  H      -5.234724      9.759843      2.210600
38
Coordinates from ORCA-job MA_freqopt E -997.041648338194
  C      -3.264032      0.297568      0.132738
  C      -2.598406     -0.919204      0.349555
  C      -1.215286     -0.917802      0.569819
  C      -0.514060      0.282354      0.570421
  C      -1.180159      1.507513      0.395981
  C      -2.566613      1.494807      0.161888
  H      -3.088039      2.428265     -0.011609
  H      -0.689312     -1.852273      0.726783
  H       0.561503      0.276515      0.722334
  C      -0.384671      2.740154      0.368333
  H       0.593195      2.622933     -0.098527
  C      -0.665374      3.982906      0.821400
  H      -4.331456      0.288850     -0.059724
  C      -3.396475     -2.170634      0.316317
  O      -2.638841     -3.273077      0.527559
  C      -3.370494     -4.532293      0.484401
  H      -2.613144     -5.297343      0.647557
  H      -3.846016     -4.647016     -0.491130
  H      -4.121610     -4.545804      1.276236
  O      -4.597557     -2.222087      0.097200
  C      -1.825317      4.410398      1.630028
  H       0.074997      4.743339      0.598990
  C      -2.097257      5.877690      1.765773
  O      -2.558980      3.599924      2.207886
  C      -1.178483      6.878915      1.398966
  C      -1.513165      8.216558      1.583135
  C      -2.752898      8.586227      2.107641
  C      -3.672025      7.587320      2.463090
  C      -3.337592      6.242149      2.298918
  H      -4.045325      5.471396      2.583116
  H      -2.991649      9.635302      2.233876
  H      -0.204641      6.628355      0.997990
  H      -0.802160      8.992464      1.316084
  O      -4.916117      7.834123      2.976637
  C      -5.292475      9.214861      3.162654
  H      -4.614673      9.704339      3.869792
  H      -6.302546      9.180583      3.568904
  H      -5.285166      9.744446      2.204355
38
Coordinates from ORCA-job MA_freqopt E -997.041896354918
  C      -3.260879      0.300101      0.214901
  C      -2.593805     -0.927389      0.349541
  C      -1.205820     -0.939918      0.529799
  C      -0.502634      0.256998      0.573125
  C      -1.167869      1.491887      0.481345
  C      -2.560333      1.492529      0.285237
  H      -3.084973      2.433049      0.173412
  H      -0.677973     -1.881929      0.621899
  H       0.576874      0.241479      0.694439
  C      -0.360879      2.711732      0.508740
  H       0.640207      2.579989      0.098229
  C      -0.639229      3.961543      0.947309
  H      -4.333377      0.302746      0.052552
  C      -3.395674     -2.174667      0.273945
  O      -2.639482     -3.286561      0.425942
  C      -3.376216     -4.541330      0.370716
  H      -2.619544     -5.311889      0.508307
  H      -3.865339     -4.633918     -0.600618
  H      -4.116473     -4.565423      1.172366
  O      -4.605271     -2.211739      0.111415
  C      -1.815508      4.417730      1.711101
  H       0.134321      4.698774      0.760803
  C      -2.095059      5.887197      1.788844
  O      -2.571823      3.621788      2.279649
  C      -1.221979      6.880961      1.311912
  C      -1.576452      8.220200      1.428956
  C      -2.790208      8.600315      2.001239
  C      -3.665111      7.610403      2.470375
  C      -3.311948      6.264768      2.365890
  H      -3.986207      5.498639      2.732125
  H      -3.042855      9.651503      2.076780
  H      -0.268613      6.628285      0.865111
  H      -0.900591      8.989933      1.068881
  O      -4.881231      7.864875      3.041611
  C      -5.279739      9.244437      3.166003
  H      -4.574740      9.790640      3.801546
  H      -6.263224      9.211613      3.633409
  H      -5.342662      9.713370      2.178533
38
Coordinates from ORCA-job MA_freqopt E -997.042210416928
  C      -3.264307      0.276047      0.282399
  C      -2.589238     -0.952465      0.356284
  C      -1.199259     -0.964235      0.522083
  C      -0.504408      0.234392      0.615376
  C      -1.176533      1.470319      0.586976
  C      -2.571438      1.469004      0.400454
  H      -3.104929      2.408159      0.333455
  H      -0.664659     -1.906175      0.564632
  H       0.576679      0.220785      0.725659
  C      -0.365086      2.680988      0.675083
  H       0.657168      2.536713      0.324596
  C      -0.646555      3.938694      1.094734
  H      -4.338424      0.277982      0.129333
  C      -3.384134     -2.201366      0.234154
  O      -2.618176     -3.312560      0.317707
  C      -3.340398     -4.570925      0.213703
  H      -2.576208     -5.338917      0.319832
  H      -3.829622     -4.630346     -0.760565
  H      -4.081007     -4.635205      1.013034
  O      -4.595534     -2.238822      0.082932
  C      -1.842779      4.425903      1.805457
  H       0.154718      4.656139      0.947949
  C      -2.121492      5.897634      1.811440
  O      -2.602047      3.654198      2.403657
  C      -1.300617      6.858355      1.195628
  C      -1.662187      8.200305      1.236448
  C      -2.829740      8.616933      1.875710
  C      -3.652370      7.661507      2.487959
  C      -3.294006      6.313477      2.452518
  H      -3.929106      5.571382      2.924251
  H      -3.086790      9.670072      1.892296
  H      -0.386103      6.580114      0.685790
  H      -1.027923      8.943179      0.761762
  O      -4.818308      7.953307      3.137835
  C      -5.220775      9.334549      3.188909
  H      -4.471939      9.933450      3.718410
  H      -6.160863      9.333760      3.739802
  H      -5.373924      9.726389      2.177685
38
Coordinates from ORCA-job MA_freqopt E -997.042565547447
  C      -3.273685      0.250569      0.342011
  C      -2.583887     -0.972597      0.358615
  C      -1.189661     -0.973949      0.504657
  C      -0.508437      0.229562      0.639140
  C      -1.194428      1.461156      0.666388
  C      -2.593463      1.448150      0.497244
  H      -3.142626      2.381036      0.476614
  H      -0.645037     -1.911660      0.502045
  H       0.574722      0.226304      0.735247
  C      -0.385695      2.670122      0.804042
  H       0.644221      2.529132      0.473275
  C      -0.680279      3.923900      1.230104
  H      -4.350676      0.242562      0.205967
  C      -3.366008     -2.227654      0.204897
  O      -2.583117     -3.328099      0.220259
  C      -3.276961     -4.593658      0.074598
  H      -2.497723     -5.351841      0.132435
  H      -3.786172     -4.627216     -0.891519
  H      -4.003993     -4.714163      0.880966
  O      -4.581214     -2.274385      0.068365
  C      -1.899512      4.412947      1.905276
  H       0.122566      4.648717      1.119536
  C      -2.175482      5.883863      1.849681
  O      -2.645802      3.659461      2.542542
  C      -1.385640      6.789394      1.119326
  C      -1.732957      8.136817      1.090245
  C      -2.853502      8.610827      1.776839
  C      -3.643373      7.710176      2.506994
  C      -3.300185      6.356159      2.537151
  H      -3.911323      5.654248      3.096651
  H      -3.099928      9.666235      1.737409
  H      -0.513166      6.459525      0.564703
  H      -1.125199      8.836923      0.523499
  O      -4.758247      8.064930      3.210049
  C      -5.140871      9.449909      3.187534
  H      -4.353615     10.078173      3.619816
  H      -6.041750      9.510345      3.798286
  H      -5.360211      9.776802      2.164482
38
Coordinates from ORCA-job MA_freqopt E -997.042785672209
  C      -3.266410      0.239838      0.411534
  C      -2.570350     -0.979427      0.367793
  C      -1.174414     -0.979859      0.503150
  C      -0.498761      0.220642      0.685765
  C      -1.190149      1.447926      0.771082
  C      -2.591315      1.433797      0.613933
  H      -3.147551      2.362545      0.638676
  H      -0.625215     -1.913559      0.454713
  H       0.585148      0.219950      0.772160
  C      -0.380824      2.650012      0.956656
  H       0.662639      2.502174      0.675613
  C      -0.684737      3.904136      1.374401
  H      -4.344277      0.231937      0.283285
  C      -3.347782     -2.230320      0.164402
  O      -2.558601     -3.325606      0.123100
  C      -3.249560     -4.586503     -0.071545
  H      -2.468244     -5.344474     -0.045312
  H      -3.760370     -4.585038     -1.037424
  H      -3.975037     -4.742565      0.730065
  O      -4.565102     -2.278125      0.042247
  C      -1.931811      4.408153      1.988513
  H       0.130006      4.621261      1.314338
  C      -2.217286      5.872751      1.864840
  O      -2.689808      3.673028      2.633987
  C      -1.492576      6.722536      1.008874
  C      -1.844876      8.066263      0.915199
  C      -2.903773      8.590064      1.662296
  C      -3.629019      7.743165      2.516013
  C      -3.283905      6.392459      2.608202
  H      -3.845590      5.731681      3.261677
  H      -3.154634      9.640982      1.572797
  H      -0.674756      6.348489      0.402582
  H      -1.289929      8.723296      0.251275
  O      -4.680653      8.151329      3.285518
  C      -5.063398      9.534897      3.199664
  H      -4.242232     10.186959      3.518815
  H      -5.909593      9.645074      3.877847
  H      -5.367574      9.792850      2.178637
38
Coordinates from ORCA-job MA_freqopt E -997.042909118092
  C      -3.246977      0.264872      0.397128
  C      -2.561210     -0.960141      0.364288
  C      -1.167461     -0.972535      0.517219
  C      -0.483097      0.222217      0.703640
  C      -1.164738      1.454698      0.774973
  C      -2.563338      1.453243      0.603674
  H      -3.111724      2.386604      0.621925
  H      -0.626348     -1.911140      0.480187
  H       0.599022      0.212366      0.804612
  C      -0.351907      2.656997      0.960964
  H       0.691655      2.512192      0.680676
  C      -0.663264      3.903929      1.387435
  H      -4.323067      0.267111      0.257345
  C      -3.347610     -2.203230      0.154286
  O      -2.569236     -3.307951      0.134702
  C      -3.277295     -4.560252     -0.062613
  H      -2.506428     -5.328661     -0.027349
  H      -3.779537     -4.555251     -1.032595
  H      -4.010449     -4.704091      0.733933
  O      -4.563407     -2.240669      0.019232
  C      -1.923862      4.396316      1.988681
  H       0.142087      4.631945      1.341769
  C      -2.227657      5.855485      1.857536
  O      -2.684350      3.653988      2.621474
  C      -1.514067      6.699423      0.986234
  C      -1.870511      8.041539      0.888515
  C      -2.921355      8.565996      1.646203
  C      -3.635035      7.721663      2.512988
  C      -3.287066      6.372576      2.610335
  H      -3.838177      5.716856      3.276798
  H      -3.175075      9.615717      1.555604
  H      -0.702170      6.318041      0.377798
  H      -1.325476      8.696961      0.215426
  O      -4.677525      8.131881      3.296104
  C      -5.062041      9.516605      3.212279
  H      -4.236266     10.168581      3.518654
  H      -5.899322      9.627806      3.900871
  H      -5.378034      9.771034      2.194438
38
Coordinates from ORCA-job MA_freqopt E -997.042967113923
  C      -3.235996      0.280557      0.374608
  C      -2.556219     -0.947632      0.355941
  C      -1.165862     -0.966431      0.532333
  C      -0.478990      0.224877      0.728030
  C      -1.155231      1.460026      0.785025
  C      -2.549903      1.465702      0.589607
  H      -3.094308      2.401040      0.597360
  H      -0.629009     -1.907778      0.506898
  H       0.600937      0.209847      0.849029
  C      -0.340238      2.659561      0.984296
  H       0.704661      2.514793      0.709724
  C      -0.654802      3.901309      1.419638
  H      -4.309595      0.288288      0.217506
  C      -3.344757     -2.187044      0.135673
  O      -2.572136     -3.296363      0.134626
  C      -3.283218     -4.544999     -0.072746
  H      -2.516520     -5.317025     -0.027005
  H      -3.771933     -4.537296     -1.049504
  H      -4.027611     -4.685411      0.713874
  O      -4.557178     -2.218919     -0.023162
  C      -1.920992      4.388171      2.016254
  H       0.145857      4.635706      1.386057
  C      -2.236110      5.842386      1.868947
  O      -2.674177      3.646473      2.656996
  C      -1.548193      6.667396      0.960858
  C      -1.912976      8.004980      0.841280
  C      -2.943648      8.542675      1.616231
  C      -3.629443      7.716988      2.521535
  C      -3.275696      6.371097      2.639362
  H      -3.807159      5.730079      3.335115
  H      -3.203083      9.589578      1.509633
  H      -0.752473      6.269576      0.341133
  H      -1.391090      8.646800      0.137549
  O      -4.651131      8.141219      3.324642
  C      -5.043110      9.522164      3.223101
  H      -4.211503     10.182798      3.492917
  H      -5.861173      9.643679      3.932643
  H      -5.388311      9.753855      2.209364
38
Coordinates from ORCA-job MA_freqopt E -997.043015013578
  C      -3.214971      0.315366      0.329857
  C      -2.552056     -0.921856      0.347438
  C      -1.167755     -0.956559      0.562329
  C      -0.469617      0.227886      0.759707
  C      -1.130457      1.471293      0.781093
  C      -2.518143      1.493876      0.546315
  H      -3.049080      2.437005      0.521814
  H      -0.643202     -1.905213      0.564382
  H       0.606341      0.199944      0.910796
  C      -0.308827      2.666360      0.985291
  H       0.735298      2.521207      0.707890
  C      -0.625080      3.901986      1.432161
  H      -4.283497      0.336270      0.141941
  C      -3.350723     -2.153423      0.121085
  O      -2.593686     -3.273678      0.159557
  C      -3.315152     -4.515122     -0.056246
  H      -2.558897     -5.295666      0.012519
  H      -3.780799     -4.507257     -1.044112
  H      -4.078574     -4.640450      0.714556
  O      -4.556838     -2.171417     -0.079011
  C      -1.893510      4.376336      2.037260
  H       0.167866      4.645472      1.403927
  C      -2.229113      5.824600      1.880680
  O      -2.627777      3.629906      2.693287
  C      -1.571153      6.639863      0.942708
  C      -1.954842      7.970122      0.806373
  C      -2.973070      8.509558      1.595881
  C      -3.626609      7.694104      2.532446
  C      -3.255630      6.354012      2.666903
  H      -3.765247      5.721300      3.386206
  H      -3.247343      9.551466      1.476683
  H      -0.785488      6.233961      0.314881
  H      -1.459296      8.605408      0.077969
  O      -4.634315      8.121234      3.351651
  C      -5.046524      9.494879      3.233512
  H      -4.216501     10.170255      3.469338
  H      -5.847604      9.618368      3.961834
  H      -5.420450      9.701324      2.224469
38
Coordinates from ORCA-job MA_freqopt E -997.043047564162
  C      -3.185430      0.363269      0.283284
  C      -2.547015     -0.885665      0.339552
  C      -1.170330     -0.942716      0.594768
  C      -0.454741      0.231378      0.793688
  C      -1.092889      1.485923      0.777349
  C      -2.471889      1.531511      0.501098
  H      -2.982476      2.484944      0.441261
  H      -0.664027     -1.900803      0.625848
  H       0.615832      0.185429      0.975973
  C      -0.261221      2.673627      0.986234
  H       0.781887      2.526732      0.705753
  C      -0.578960      3.903783      1.443664
  H      -4.247304      0.401933      0.062814
  C      -3.361861     -2.105416      0.106893
  O      -2.628343     -3.239479      0.189441
  C      -3.365552     -4.470705     -0.033484
  H      -2.624782     -5.263022      0.062997
  H      -3.804818     -4.463860     -1.033303
  H      -4.150542     -4.574355      0.718720
  O      -4.560240     -2.104024     -0.135314
  C      -1.849451      4.361957      2.059633
  H       0.207195      4.655193      1.420654
  C      -2.213262      5.801812      1.891056
  O      -2.558705      3.608681      2.734519
  C      -1.592521      6.609771      0.922044
  C      -2.003477      7.929731      0.768804
  C      -3.011936      8.466216      1.572934
  C      -3.626940      7.658891      2.541279
  C      -3.229542      6.327664      2.692539
  H      -3.711861      5.701279      3.435918
  H      -3.308154      9.500571      1.440252
  H      -0.815188      6.201015      0.285213
  H      -1.538814      8.559777      0.015770
  O      -4.621514      8.084602      3.376971
  C      -5.062248      9.447949      3.241583
  H      -4.238680     10.142517      3.441220
  H      -5.845705      9.571138      3.988907
  H      -5.466816      9.625472      2.238836
38
Coordinates from ORCA-job MA_freqopt E -997.043085402598
  C      -3.153517      0.416578      0.248878
  C      -2.542227     -0.844312      0.335100
  C      -1.172250     -0.926184      0.619161
  C      -0.435640      0.235518      0.817418
  C      -1.048182      1.501752      0.771972
  C      -2.419560      1.572366      0.465736
  H      -2.907147      2.536574      0.380122
  H      -0.686623     -1.893989      0.672848
  H       0.629819      0.169578      1.022362
  C      -0.204801      2.680900      0.982597
  H       0.836618      2.532253      0.696691
  C      -0.523770      3.906907      1.448622
  H      -4.209630      0.474282      0.005621
  C      -3.377365     -2.050072      0.100418
  O      -2.670788     -3.198080      0.219212
  C      -3.427566     -4.417375     -0.005504
  H      -2.704431     -5.222614      0.114424
  H      -3.846801     -4.412250     -1.013877
  H      -4.229032     -4.496929      0.732204
  O      -4.569061     -2.026926     -0.172570
  C      -1.796147      4.347259      2.075768
  H       0.256910      4.664414      1.427700
  C      -2.190898      5.777332      1.896312
  O      -2.479167      3.585863      2.768214
  C      -1.601819      6.584911      0.907258
  C      -2.042141      7.893862      0.742513
  C      -3.049518      8.420446      1.555199
  C      -3.632403      7.614425      2.544078
  C      -3.205552      6.293300      2.706606
  H      -3.664083      5.667637      3.465683
  H      -3.369653      9.446412      1.412713
  H      -0.825735      6.181839      0.264913
  H      -1.602517      8.523419     -0.025906
  O      -4.621957      8.031672      3.389535
  C      -5.092570      9.383999      3.241785
  H      -4.279943     10.097576      3.417634
  H      -5.865885      9.502232      4.000432
  H      -5.517290      9.538145      2.243499
38
Coordinates from ORCA-job MA_freqopt E -997.043116611328
  C      -3.094522      0.520439      0.199791
  C      -2.534440     -0.760545      0.328965
  C      -1.176451     -0.888679      0.652468
  C      -0.399540      0.247728      0.848123
  C      -0.962624      1.534196      0.760360
  C      -2.320948      1.650912      0.412948
  H      -2.764691      2.633348      0.291570
  H      -0.730702     -1.873135      0.739716
  H       0.656059      0.144391      1.085609
  C      -0.095149      2.696177      0.971454
  H       0.941134      2.544744      0.669152
  C      -0.412388      3.914437      1.456731
  H      -4.140697      0.612828     -0.074050
  C      -3.409370     -1.938187      0.095014
  O      -2.755352     -3.109409      0.270166
  C      -3.551748     -4.304217      0.049636
  H      -2.863585     -5.133200      0.207063
  H      -3.943245     -4.304987     -0.969827
  H      -4.375635     -4.336958      0.766038
  O      -4.589740     -1.874435     -0.219548
  C      -1.684932      4.321912      2.108930
  H       0.360267      4.680365      1.435318
  C      -2.141810      5.729101      1.906048
  O      -2.314932      3.548209      2.836843
  C      -1.606333      6.537971      0.887748
  C      -2.102815      7.823949      0.703520
  C      -3.116111      8.327269      1.524796
  C      -3.646095      7.520736      2.543016
  C      -3.161387      6.222121      2.725181
  H      -3.578700      5.595331      3.507002
  H      -3.482091      9.335177      1.364977
  H      -0.826248      6.152613      0.239051
  H      -1.703848      8.453876     -0.086471
  O      -4.635038      7.916924      3.398553
  C      -5.163039      9.245761      3.229515
  H      -4.377011      9.995339      3.373676
  H      -5.926629      9.351110      3.999850
  H      -5.611932      9.359510      2.236439
38
Coordinates from ORCA-job MA_freqopt E -997.043133717154
  C      -3.116221      0.491996      0.233988
  C      -2.538678     -0.783659      0.335560
  C      -1.173052     -0.899492      0.630357
  C      -0.406224      0.243698      0.824487
  C      -0.985163      1.525103      0.763377
  C      -2.352219      1.629219      0.445700
  H      -2.810328      2.607228      0.347401
  H      -0.714326     -1.879582      0.696811
  H       0.655061      0.150216      1.039512
  C      -0.122810      2.691304      0.971431
  H       0.913674      2.540639      0.669584
  C      -0.437336      3.912788      1.452402
  H      -4.168799      0.574612     -0.017280
  C      -3.404537     -1.968740      0.105368
  O      -2.733190     -3.133900      0.249304
  C      -3.521497     -4.334577      0.032845
  H      -2.822805     -5.158183      0.171227
  H      -3.930771     -4.331628     -0.979662
  H      -4.332747     -4.381748      0.762692
  O      -4.592664     -1.914959     -0.180973
  C      -1.708175      4.331109      2.099355
  H       0.340870      4.672623      1.427526
  C      -2.148924      5.744212      1.901575
  O      -2.352229      3.560805      2.818870
  C      -1.590779      6.559775      0.900886
  C      -2.071888      7.853049      0.725302
  C      -3.092498      8.356906      1.536908
  C      -3.646079      7.542974      2.537111
  C      -3.176026      6.238295      2.710899
  H      -3.609851      5.605573      3.478786
  H      -3.445933      9.370252      1.383897
  H      -0.805000      6.177935      0.257326
  H      -1.653798      8.487861     -0.050696
  O      -4.644464      7.938429      3.382071
  C      -5.156713      9.274293      3.221288
  H      -4.366393     10.014635      3.388305
  H      -5.932515      9.378051      3.979525
  H      -5.587294      9.405607      2.222302
38
Coordinates from ORCA-job MA_freqopt E -997.043140990332
  C      -3.115261      0.499539      0.236048
  C      -2.539941     -0.777109      0.336562
  C      -1.173988     -0.895441      0.628339
  C      -0.404570      0.246213      0.820199
  C      -0.980898      1.528667      0.759921
  C      -2.348514      1.635238      0.445451
  H      -2.804504      2.614186      0.347538
  H      -0.717199     -1.876439      0.694271
  H       0.656901      0.150660      1.033167
  C      -0.115570      2.693693      0.964670
  H       0.918952      2.542832      0.656648
  C      -0.426073      3.913952      1.450871
  H      -4.168190      0.583822     -0.012959
  C      -3.408590     -1.960436      0.108623
  O      -2.739840     -3.126945      0.252133
  C      -3.531921     -4.325532      0.038733
  H      -2.835904     -5.151146      0.178756
  H      -3.941634     -4.324111     -0.973595
  H      -4.343214     -4.368724      0.768745
  O      -4.597177     -1.904100     -0.175293
  C      -1.694202      4.331285      2.104174
  H       0.352767      4.672881      1.423083
  C      -2.141350      5.741596      1.903657
  O      -2.331345      3.561292      2.829930
  C      -1.582643      6.559753      0.905582
  C      -2.067872      7.851540      0.729662
  C      -3.093408      8.350848      1.537569
  C      -3.648085      7.533607      2.534761
  C      -3.173252      6.231126      2.709520
  H      -3.606774      5.595765      3.475321
  H      -3.449870      9.363020      1.384182
  H      -0.792891      6.182865      0.264177
  H      -1.648584      8.488438     -0.043903
  O      -4.651885      7.924044      3.375803
  C      -5.168965      9.257843      3.214423
  H      -4.382989     10.001488      3.387339
  H      -5.949740      9.357179      3.968102
  H      -5.594097      9.389330      2.213157
38
Coordinates from ORCA-job MA_freqopt E -997.043146701219
  C      -3.109594      0.520693      0.243402
  C      -2.540767     -0.759178      0.338622
  C      -1.174311     -0.885377      0.624194
  C      -0.398035      0.251599      0.815088
  C      -0.967420      1.537097      0.759847
  C      -2.335705      1.651649      0.451562
  H      -2.786492      2.633430      0.357603
  H      -0.722792     -1.869047      0.686371
  H       0.663647      0.149843      1.024041
  C      -0.095483      2.697774      0.964248
  H       0.936252      2.545852      0.647877
  C      -0.399660      3.914682      1.461365
  H      -4.163181      0.610809     -0.000634
  C      -3.416787     -1.937158      0.112167
  O      -2.754576     -3.107792      0.251587
  C      -3.554970     -4.300958      0.040451
  H      -2.864909     -5.131416      0.181521
  H      -3.965089     -4.298945     -0.971737
  H      -4.366526     -4.337614      0.770499
  O      -4.605908     -1.873402     -0.167866
  C      -1.665486      4.328790      2.122500
  H       0.380164      4.672713      1.433960
  C      -2.128059      5.731949      1.911220
  O      -2.287760      3.559948      2.861911
  C      -1.579023      6.546941      0.905583
  C      -2.076551      7.833077      0.721287
  C      -3.104841      8.329016      1.527295
  C      -3.650411      7.513905      2.531504
  C      -3.162751      6.217859      2.715570
  H      -3.587944      5.583720      3.486980
  H      -3.470483      9.336877      1.367354
  H      -0.787400      6.173702      0.264434
  H      -1.664136      8.467604     -0.057879
  O      -4.656879      7.900928      3.371153
  C      -5.187155      9.228139      3.200922
  H      -4.409118      9.981035      3.370040
  H      -5.969873      9.324521      3.952947
  H      -5.612304      9.349456      2.198378
38
Coordinates from ORCA-job MA_freqopt E -997.043147944461
  C      -3.109783      0.524886      0.248237
  C      -2.541593     -0.755538      0.339936
  C      -1.174451     -0.883044      0.621688
  C      -0.396954      0.253157      0.812261
  C      -0.965640      1.539069      0.760431
  C      -2.334596      1.655049      0.456026
  H      -2.785169      2.637197      0.364611
  H      -0.723388     -1.867108      0.681076
  H       0.665251      0.150483      1.018157
  C      -0.092122      2.698556      0.964874
  H       0.938775      2.546063      0.646000
  C      -0.394009      3.914562      1.465107
  H      -4.163965      0.616129      0.007126
  C      -3.418930     -1.932543      0.113732
  O      -2.756938     -3.103939      0.249155
  C      -3.558602     -4.296253      0.038182
  H      -2.869229     -5.127408      0.178507
  H      -3.969230     -4.293525     -0.973819
  H      -4.369737     -4.332340      0.768714
  O      -4.608681     -1.867657     -0.163206
  C      -1.658780      4.328604      2.128684
  H       0.386146      4.672366      1.438060
  C      -2.124864      5.730101      1.914300
  O      -2.276997      3.560535      2.872258
  C      -1.577984      6.543508      0.906302
  C      -2.078321      7.828196      0.719020
  C      -3.107238      8.323953      1.524206
  C      -3.650574      7.510304      2.530716
  C      -3.160163      6.215751      2.718060
  H      -3.583501      5.582634      3.491333
  H      -3.475003      9.330715      1.362097
  H      -0.785716      6.170270      0.265902
  H      -1.667541      8.461580     -0.061964
  O      -4.657535      7.897449      3.369748
  C      -5.190817      9.222939      3.195948
  H      -4.414503      9.978028      3.363219
  H      -5.973837      9.319342      3.947666
  H      -5.616098      9.340649      2.193018
38
Coordinates from ORCA-job MA_freqopt E -997.043148895108
  C      -3.110729      0.528840      0.256529
  C      -2.542695     -0.752100      0.342156
  C      -1.174366     -0.880906      0.617772
  C      -0.395653      0.254516      0.808352
  C      -0.964123      1.540814      0.762462
  C      -2.334252      1.658222      0.464223
  H      -2.785208      2.640632      0.377226
  H      -0.723352     -1.865281      0.672400
  H       0.667425      0.150993      1.009295
  C      -0.088902      2.698825      0.967306
  H       0.941214      2.545304      0.646296
  C      -0.388313      3.914252      1.470094
  H      -4.165885      0.621339      0.020116
  C      -3.421388     -1.928079      0.115953
  O      -2.758787     -3.100166      0.244284
  C      -3.561546     -4.291764      0.033066
  H      -2.872437     -5.123447      0.171511
  H      -3.973223     -4.287470     -0.978529
  H      -4.371736     -4.328031      0.764607
  O      -4.612328     -1.862199     -0.155456
  C      -1.651911      4.328732      2.135993
  H       0.392353      4.671658      1.443687
  C      -2.121409      5.728514      1.917783
  O      -2.265852      3.561895      2.884399
  C      -1.577173      6.539743      0.906621
  C      -2.080481      7.822746      0.715543
  C      -3.109919      8.318722      1.519918
  C      -3.650537      7.507280      2.529551
  C      -3.157197      6.214332      2.720936
  H      -3.578461      5.582807      3.496646
  H      -3.480187      9.324105      1.354935
  H      -0.784356      6.165868      0.267223
  H      -1.671762      8.454513     -0.067854
  O      -4.657628      7.895154      3.368098
  C      -5.194298      9.218743      3.189812
  H      -4.419677      9.976235      3.353967
  H      -5.977066      9.315674      3.941734
  H      -5.620473      9.331705      2.186715
