! PW6B95 D3BJ def2-QZVP RIJK def2/JK tightSCF CPCM(THF)
! sp Pal8

* xyz 0 1  
  C   -3.11072933947487      0.52884019970400      0.25652910329326
  C   -2.54269460971587     -0.75209951760385      0.34215557285234
  C   -1.17436582822338     -0.88090551364996      0.61777230992968
  C   -0.39565259031227      0.25451585259855      0.80835211425081
  C   -0.96412306847822      1.54081358672193      0.76246181056740
  C   -2.33425242998420      1.65822187821794      0.46422293722466
  H   -2.78520833233086      2.64063240089420      0.37722565580235
  H   -0.72335177862831     -1.86528061789196      0.67239989557204
  H   0.66742467105612      0.15099303419790      1.00929456438131
  C   -0.08890242916000      2.69882540633749      0.96730551932783
  H   0.94121375977261      2.54530362719684      0.64629611286877
  C   -0.38831295961462      3.91425202416308      1.47009405339556
  H   -4.16588520575502      0.62133897127143      0.02011590650275
  C   -3.42138833729417     -1.92807919586869      0.11595330999325
  O   -2.75878710443268     -3.10016617673945      0.24428384688355
  C   -3.56154597536710     -4.29176420055223      0.03306622125676
  H   -2.87243720397849     -5.12344683955525      0.17151052953821
  H   -3.97322258419575     -4.28747045755663     -0.97852864542861
  H   -4.37173642150336     -4.32803118023906      0.76460730533121
  O   -4.61232771021778     -1.86219914963487     -0.15545616369239
  C   -1.65191087951929      4.32873235564202      2.13599318133380
  H   0.39235338423861      4.67165826979878      1.44368691625319
  C   -2.12140898531112      5.72851449808297      1.91778340118889
  O   -2.26585246547925      3.56189460735838      2.88439870672750
  C   -1.57717284176993      6.53974302151054      0.90662068088969
  C   -2.08048118123513      7.82274628436150      0.71554316568519
  C   -3.10991881684982      8.31872232532396      1.51991783926734
  C   -3.65053683931622      7.50727974116191      2.52955081903955
  C   -3.15719659277666      6.21433151165645      2.72093550732843
  H   -3.57846132534987      5.58280696104913      3.49664600317511
  H   -3.48018735687728      9.32410455495248      1.35493513180507
  H   -0.78435605629714      6.16586768208789      0.26722339899332
  H   -1.67176168849650      8.45451306538517     -0.06785373514852
  O   -4.65762777931121      7.89515395548065      3.36809809233145
  C   -5.19429805451408      9.21874321699177      3.18981185197379
  H   -4.41967688411845      9.97623546860935      3.35396659696315
  H   -5.97706643009310      9.31567374477497      3.94173371361349
  H   -5.62047250488478      9.33170543306025      2.18671521943110
*
