! TPSS D3BJ def2-TZVP RI def2/J CPCM(THF)
! Opt numfreq Pal4

* xyz 0 1
C         3.12261137633848   -1.64429902283903   -1.28680344581679
C         3.10217837118474   -2.21117176639674   -2.55676027824433
C         4.01405640643394   -3.20757782499520   -2.87025164118022
C         4.94340984625074   -3.64950949084645   -1.94995571960240
C         4.97558542092251   -3.09021727314351   -0.67026723523622
C         4.05902212848912   -2.09257078582106   -0.35840761325561
H         4.07184638131760   -1.65186150179527    0.62597406410564
H         2.39137258186824   -1.89185811522384   -3.30168608743992
H         3.99282042293148   -3.64378258002584   -3.85784359739595
H         5.63154789622944   -4.42617552416514   -2.23728436226995
C         5.93598645828659   -3.49063391910016    0.39848488985162
O         2.28542893702524   -0.66059082512593   -0.85537993500032
C         1.32870035229714   -0.13974481108049   -1.75656014440308
H         1.80956447488891    0.30594690550021   -2.63228946459673
H         0.79897156121652    0.63155435029816   -1.20081229491657
H         0.62108344517879   -0.91067085946092   -2.07601442875263
C         6.92139143757565   -4.45351782228923    0.13913531106751
O         5.81852850321702   -2.92244322255634    1.52459175283494
C         7.86809012287017   -4.84429867099779    1.08783317238561
H         6.98400708661493   -4.89662987960429   -0.83790088708821
O         7.95931969536939   -4.36946735553455    2.25784121782401
Li        6.85407239342838   -3.18478987279504    2.89668654757085
C         8.87290621620347   -5.87552066892669    0.69343750555499
C         8.54636957356245   -6.95835811204751   -0.11932182346107
C        10.17001527155490   -5.77093860387293    1.19188337556986
C        11.13018635225259   -6.70617248375816    0.86081518873868
C        10.80891450762669   -7.76624582034667    0.01631831318879
C         9.50511834307947   -7.89582069193442   -0.45610825150746
C        11.85215927565325   -8.79724090190134   -0.26460846037589
O        12.17059799677313   -9.09182253072566   -1.52627618788246
O        12.42742362933457   -9.37647338061946    0.62947075762622
C        11.64041757005184   -8.37321109110801   -2.63663423684416
H        10.77137228035662   -8.89958045396402   -3.03453777408412
H        12.43136243735660   -8.36270421501007   -3.38525065771814
H        11.36665571193406   -7.35394085567343   -2.36344295381323
H         9.23252470186647   -8.74453961231292   -1.06499729914523
H         7.53399740536736   -7.08257144536809   -0.46992382799391
H        12.13396714140900   -6.62701496379786    1.24959633632316
H        10.40923603858433   -4.94474772323438    1.84360275718257
*
