39
Coordinates from ORCA-job Li-Aldol_freqopt E -1079.333835794000
  C       3.122611     -1.644299     -1.286803
  C       3.102178     -2.211172     -2.556760
  C       4.014056     -3.207578     -2.870252
  C       4.943410     -3.649509     -1.949956
  C       4.975585     -3.090217     -0.670267
  C       4.059022     -2.092571     -0.358408
  H       4.071846     -1.651862      0.625974
  H       2.391373     -1.891858     -3.301686
  H       3.992820     -3.643783     -3.857844
  H       5.631548     -4.426176     -2.237284
  C       5.935986     -3.490634      0.398485
  O       2.285429     -0.660591     -0.855380
  C       1.328700     -0.139745     -1.756560
  H       1.809564      0.305947     -2.632289
  H       0.798972      0.631554     -1.200812
  H       0.621083     -0.910671     -2.076014
  C       6.921391     -4.453518      0.139135
  O       5.818529     -2.922443      1.524592
  C       7.868090     -4.844299      1.087833
  H       6.984007     -4.896630     -0.837901
  O       7.959320     -4.369467      2.257841
  Li      6.854072     -3.184790      2.896687
  C       8.872906     -5.875521      0.693438
  C       8.546370     -6.958358     -0.119322
  C      10.170015     -5.770939      1.191883
  C      11.130186     -6.706172      0.860815
  C      10.808915     -7.766246      0.016318
  C       9.505118     -7.895821     -0.456108
  C      11.852159     -8.797241     -0.264608
  O      12.170598     -9.091823     -1.526276
  O      12.427424     -9.376473      0.629471
  C      11.640418     -8.373211     -2.636634
  H      10.771372     -8.899580     -3.034538
  H      12.431362     -8.362704     -3.385251
  H      11.366656     -7.353941     -2.363443
  H       9.232525     -8.744540     -1.064997
  H       7.533997     -7.082571     -0.469924
  H      12.133967     -6.627015      1.249596
  H      10.409236     -4.944748      1.843603
39
Coordinates from ORCA-job Li-Aldol_freqopt E -1079.337842489393
  C       3.103444     -1.625541     -1.278527
  C       3.069990     -2.222246     -2.542521
  C       3.986880     -3.230895     -2.842102
  C       4.928939     -3.651112     -1.912286
  C       4.968447     -3.057007     -0.639174
  C       4.049467     -2.048544     -0.339941
  H       4.069326     -1.582737      0.639560
  H       2.346311     -1.916790     -3.290754
  H       3.958064     -3.693732     -3.824488
  H       5.621845     -4.439349     -2.184700
  C       5.946609     -3.445641      0.428046
  O       2.259084     -0.632544     -0.871629
  C       1.290043     -0.157412     -1.805440
  H       1.771045      0.256519     -2.700312
  H       0.742978      0.630911     -1.286927
  H       0.595661     -0.954719     -2.098002
  C       6.928924     -4.424475      0.161209
  O       5.848966     -2.861740      1.558400
  C       7.897121     -4.819860      1.103378
  H       6.968566     -4.881983     -0.818331
  O       8.009772     -4.333843      2.277538
  Li      6.913301     -3.130394      2.917638
  C       8.892425     -5.865457      0.701128
  C       8.562018     -6.911690     -0.168673
  C      10.185172     -5.811984      1.238863
  C      11.133103     -6.768006      0.901800
  C      10.804516     -7.797751      0.011864
  C       9.509501     -7.868627     -0.513817
  C      11.826829     -8.855514     -0.268168
  O      12.154969     -9.145227     -1.540536
  O      12.369725     -9.475730      0.629614
  C      11.683776     -8.369031     -2.660343
  H      10.781423     -8.828019     -3.072879
  H      12.482743     -8.402154     -3.402541
  H      11.480124     -7.335410     -2.374721
  H       9.233449     -8.685768     -1.173641
  H       7.553414     -6.989886     -0.562943
  H      12.133233     -6.727323      1.322579
  H      10.431615     -5.010503      1.928130
39
Coordinates from ORCA-job Li-Aldol_freqopt E -1079.338930900164
  C       3.092607     -1.616792     -1.271004
  C       3.030673     -2.248324     -2.520847
  C       3.939573     -3.272993     -2.809060
  C       4.897927     -3.671689     -1.881812
  C       4.961608     -3.038697     -0.624321
  C       4.052661     -2.015858     -0.333962
  H       4.093705     -1.523043      0.632846
  H       2.293876     -1.957559     -3.262531
  H       3.890567     -3.764285     -3.777910
  H       5.583362     -4.471752     -2.141141
  C       5.959359     -3.408945      0.432883
  O       2.257416     -0.605434     -0.881147
  C       1.271602     -0.165693     -1.827957
  H       1.745572      0.210658     -2.742827
  H       0.728490      0.641295     -1.334871
  H       0.579369     -0.978129     -2.080956
  C       6.935545     -4.400670      0.164776
  O       5.884962     -2.796395      1.554340
  C       7.926403     -4.793911      1.092526
  H       6.950323     -4.873120     -0.808783
  O       8.071386     -4.290021      2.260766
  Li      6.987506     -3.059527      2.897772
  C       8.906512     -5.853473      0.687049
  C       8.580738     -6.857798     -0.237836
  C      10.180451     -5.861328      1.277749
  C      11.111376     -6.839188      0.945039
  C      10.786382     -7.827831      0.004133
  C       9.513043     -7.833814     -0.582298
  C      11.781824     -8.912612     -0.266722
  O      12.140738     -9.187158     -1.540418
  O      12.302166     -9.553513      0.633431
  C      11.739158     -8.345850     -2.653439
  H      10.819303     -8.737551     -3.094612
  H      12.553774     -8.407556     -3.376052
  H      11.595039     -7.311421     -2.335560
  H       9.239775     -8.615088     -1.286477
  H       7.586863     -6.889519     -0.675948
  H      12.094968     -6.844504      1.407184
  H      10.426216     -5.092126      2.004349
39
Coordinates from ORCA-job Li-Aldol_freqopt E -1079.339315138461
  C       3.085223     -1.616164     -1.267498
  C       2.999060     -2.280587     -2.500603
  C       3.898464     -3.320053     -2.773852
  C       4.868497     -3.698651     -1.848855
  C       4.953339     -3.029453     -0.609532
  C       4.055046     -1.993291     -0.331301
  H       4.115183     -1.475302      0.620949
  H       2.253108     -2.003665     -3.237168
  H       3.831969     -3.837931     -3.727613
  H       5.545646     -4.509666     -2.093135
  C       5.967051     -3.378407      0.439364
  O       2.261108     -0.586002     -0.894420
  C       1.261001     -0.173729     -1.848810
  H       1.729894      0.168669     -2.778574
  H       0.726379      0.649310     -1.374550
  H       0.569186     -0.996040     -2.065216
  C       6.941827     -4.375188      0.172565
  O       5.904569     -2.740362      1.549663
  C       7.952840     -4.767090      1.083135
  H       6.937818     -4.855151     -0.796393
  O       8.126061     -4.252923      2.246074
  Li      7.044801     -3.000607      2.880815
  C       8.921376     -5.835295      0.674431
  C       8.619340     -6.789537     -0.312707
  C      10.163831     -5.907015      1.327963
  C      11.084088     -6.897604      0.999951
  C      10.783893     -7.832766     -0.003042
  C       9.543210     -7.775157     -0.655543
  C      11.762615     -8.931077     -0.268888
  O      12.103095     -9.230661     -1.547071
  O      12.217010     -9.630038      0.624754
  C      11.771649     -8.338195     -2.654333
  H      10.811854     -8.632559     -3.083713
  H      12.571361     -8.478565     -3.381644
  H      11.740209     -7.299928     -2.319685
  H       9.286904     -8.514475     -1.409065
  H       7.649030     -6.778194     -0.800343
  H      12.041120     -6.950317      1.511651
  H      10.394164     -5.177548      2.098591
39
Coordinates from ORCA-job Li-Aldol_freqopt E -1079.339796961061
  C       3.086647     -1.611627     -1.269516
  C       2.969909     -2.309725     -2.480384
  C       3.848186     -3.370101     -2.736697
  C       4.827045     -3.735973     -1.817496
  C       4.942729     -3.032086     -0.600900
  C       4.064995     -1.975490     -0.338209
  H       4.149973     -1.431514      0.596508
  H       2.216628     -2.042621     -3.212022
  H       3.757696     -3.914661     -3.672828
  H       5.486955     -4.564196     -2.047523
  C       5.970553     -3.362129      0.439563
  O       2.285757     -0.556856     -0.911827
  C       1.273991     -0.155120     -1.860529
  H       1.733996      0.153919     -2.805559
  H       0.762407      0.687956     -1.397064
  H       0.568526     -0.973867     -2.040244
  C       6.936079     -4.367679      0.177972
  O       5.923757     -2.697366      1.534400
  C       7.963134     -4.755235      1.070455
  H       6.910682     -4.859896     -0.783443
  O       8.166040     -4.227476      2.222272
  Li      7.096552     -2.949912      2.852679
  C       8.914322     -5.837984      0.661341
  C       8.616941     -6.772196     -0.346114
  C      10.141834     -5.943300      1.336870
  C      11.050957     -6.943221      1.010310
  C      10.758180     -7.853442     -0.016174
  C       9.530763     -7.765422     -0.688982
  C      11.723571     -8.962065     -0.278419
  O      12.108814     -9.235665     -1.551225
  O      12.189450     -9.647848      0.618348
  C      11.839870     -8.300606     -2.643696
  H      10.888389     -8.554817     -3.113117
  H      12.662455     -8.446497     -3.343425
  H      11.828576     -7.273845     -2.275448
  H       9.274854     -8.488835     -1.456703
  H       7.656726     -6.742111     -0.850408
  H      11.995196     -7.020948      1.540887
  H      10.369681     -5.230754      2.122699
39
Coordinates from ORCA-job Li-Aldol_freqopt E -1079.339958374420
  C       3.096914     -1.615877     -1.277632
  C       2.977015     -2.322501     -2.481365
  C       3.846962     -3.389896     -2.728094
  C       4.822420     -3.754948     -1.806748
  C       4.944026     -3.042925     -0.596974
  C       4.073033     -1.979097     -0.344453
  H       4.161215     -1.428256      0.585577
  H       2.225990     -2.056952     -3.216088
  H       3.752381     -3.941736     -3.659264
  H       5.474650     -4.590940     -2.029964
  C       5.969339     -3.367502      0.448325
  O       2.303654     -0.554358     -0.926706
  C       1.293545     -0.150420     -1.872497
  H       1.752783      0.152371     -2.819950
  H       0.790121      0.698094     -1.409945
  H       0.581138     -0.964439     -2.046208
  C       6.936085     -4.369970      0.191166
  O       5.916129     -2.699365      1.539400
  C       7.962047     -4.756980      1.080946
  H       6.910961     -4.861786     -0.770454
  O       8.165738     -4.231890      2.232314
  Li      7.092666     -2.951000      2.860935
  C       8.910872     -5.841494      0.669246
  C       8.618164     -6.769056     -0.344106
  C      10.136784     -5.949822      1.345426
  C      11.047786     -6.945150      1.014530
  C      10.759314     -7.848609     -0.017618
  C       9.533742     -7.757250     -0.691553
  C      11.729960     -8.949339     -0.289459
  O      12.102589     -9.218068     -1.565207
  O      12.211051     -9.629149      0.602572
  C      11.813864     -8.282741     -2.649351
  H      10.860337     -8.543213     -3.111232
  H      12.630512     -8.418546     -3.358078
  H      11.796716     -7.257684     -2.276364
  H       9.280642     -8.475028     -1.465311
  H       7.660473     -6.738047     -0.852688
  H      11.990372     -7.025808      1.547177
  H      10.360833     -5.241835      2.136044
39
Coordinates from ORCA-job Li-Aldol_freqopt E -1079.340058530209
  C       3.107016     -1.616156     -1.286237
  C       2.977145     -2.339931     -2.476921
  C       3.831161     -3.421951     -2.707141
  C       4.803035     -3.785128     -1.782711
  C       4.938199     -3.056419     -0.585747
  C       4.080841     -1.978121     -0.350458
  H       4.177704     -1.413463      0.570256
  H       2.228985     -2.076745     -3.215786
  H       3.726823     -3.987849     -3.628597
  H       5.440777     -4.635505     -1.993667
  C       5.961568     -3.372935      0.465440
  O       2.329483     -0.540252     -0.949880
  C       1.322692     -0.135284     -1.893967
  H       1.780772      0.151116     -2.847218
  H       0.833176      0.725556     -1.439051
  H       0.597283     -0.940601     -2.054692
  C       6.929332     -4.372269      0.211997
  O       5.901762     -2.699216      1.551407
  C       7.955950     -4.759884      1.096488
  H       6.902250     -4.862377     -0.750566
  O       8.165059     -4.237813      2.246713
  Li      7.088452     -2.950425      2.875303
  C       8.902171     -5.845313      0.677056
  C       8.609820     -6.769610     -0.337746
  C      10.129679     -5.954949      1.348768
  C      11.042458     -6.945002      1.010868
  C      10.756297     -7.842477     -0.025987
  C       9.527109     -7.752006     -0.692582
  C      11.733550     -8.935295     -0.306858
  O      12.099087     -9.200925     -1.583707
  O      12.213054     -9.620357      0.581128
  C      11.821599     -8.261314     -2.663318
  H      10.869119     -8.511835     -3.132891
  H      12.639749     -8.400264     -3.369942
  H      11.809994     -7.237309     -2.287413
  H       9.271217     -8.468567     -1.466211
  H       7.651043     -6.742892     -0.844367
  H      11.985697     -7.027211      1.541860
  H      10.351711     -5.250238      2.142727
39
Coordinates from ORCA-job Li-Aldol_freqopt E -1079.340099768956
  C       3.112897     -1.616283     -1.289956
  C       2.980634     -2.347247     -2.476365
  C       3.828579     -3.436202     -2.698201
  C       4.797393     -3.798913     -1.769914
  C       4.935428     -3.063026     -0.577430
  C       4.083464     -1.978370     -0.350434
  H       4.182091     -1.408182      0.566896
  H       2.235366     -2.084431     -3.218351
  H       3.721984     -4.007913     -3.615899
  H       5.429406     -4.655419     -1.974111
  C       5.955626     -3.378349      0.477944
  O       2.341318     -0.533753     -0.962430
  C       1.338696     -0.129563     -1.910705
  H       1.799276      0.148456     -2.865343
  H       0.852330      0.736965     -1.463072
  H       0.608691     -0.931499     -2.068190
  C       6.927879     -4.373350      0.223203
  O       5.887824     -2.707785      1.565612
  C       7.953529     -4.764055      1.107882
  H       6.904381     -4.857298     -0.742719
  O       8.160279     -4.248896      2.261788
  Li      7.076857     -2.963226      2.893361
  C       8.902853     -5.844999      0.682368
  C       8.613444     -6.764764     -0.337503
  C      10.130260     -5.955740      1.354865
  C      11.045900     -6.941835      1.012434
  C      10.762061     -7.835664     -0.028752
  C       9.533473     -7.743515     -0.696552
  C      11.742212     -8.924754     -0.314912
  O      12.096235     -9.191221     -1.594330
  O      12.232505     -9.605405      0.570968
  C      11.801496     -8.256240     -2.672469
  H      10.848144     -8.516673     -3.135381
  H      12.615312     -8.386679     -3.385791
  H      11.781389     -7.231677     -2.298137
  H       9.280071     -8.456013     -1.475041
  H       7.655159     -6.738621     -0.845400
  H      11.989116     -7.024698      1.543579
  H      10.349264     -5.254378      2.152842
39
Coordinates from ORCA-job Li-Aldol_freqopt E -1079.340136037887
  C       3.121625     -1.614260     -1.294529
  C       2.984135     -2.355007     -2.475165
  C       3.821454     -3.455200     -2.685505
  C       4.785526     -3.819042     -1.751892
  C       4.928729     -3.073448     -0.565613
  C       4.086685     -1.978456     -0.349698
  H       4.188621     -1.401086      0.563067
  H       2.243094     -2.091487     -3.221165
  H       3.710326     -4.034819     -3.597810
  H       5.407941     -4.684961     -1.946511
  C       5.943337     -3.390475      0.495095
  O       2.360273     -0.521162     -0.979270
  C       1.364482     -0.116123     -1.933854
  H       1.829017      0.148977     -2.890445
  H       0.883894      0.759317     -1.497185
  H       0.626439     -0.911684     -2.087278
  C       6.923019     -4.378544      0.237068
  O       5.864262     -2.727503      1.586985
  C       7.946527     -4.772728      1.124095
  H       6.907255     -4.852797     -0.734026
  O       8.146521     -4.268693      2.284399
  Li      7.052782     -2.988916      2.921466
  C       8.901889     -5.845394      0.690758
  C       8.611326     -6.765082     -0.328985
  C      10.134288     -5.949507      1.356190
  C      11.053998     -6.929699      1.006591
  C      10.768435     -7.824846     -0.033938
  C       9.535296     -7.738639     -0.694625
  C      11.752794     -8.909307     -0.326099
  O      12.097715     -9.176075     -1.607535
  O      12.254374     -9.585030      0.557855
  C      11.786245     -8.250046     -2.687325
  H      10.836987     -8.528237     -3.148973
  H      12.600381     -8.366654     -3.402871
  H      11.747336     -7.224217     -2.317644
  H       9.281357     -8.451420     -1.472911
  H       7.649863     -6.743844     -0.831541
  H      12.001456     -7.007505      1.531165
  H      10.353135     -5.247614      2.154010
39
Coordinates from ORCA-job Li-Aldol_freqopt E -1079.340155134872
  C       3.131204     -1.611084     -1.298972
  C       2.984383     -2.362682     -2.472174
  C       3.807321     -3.476260     -2.670387
  C       4.766928     -3.842234     -1.732563
  C       4.919073     -3.085626     -0.554246
  C       4.090732     -1.978059     -0.349553
  H       4.199029     -1.392700      0.557472
  H       2.246991     -2.097654     -3.221223
  H       3.688373     -4.064765     -3.576032
  H       5.377252     -4.719053     -1.916680
  C       5.928870     -3.405973      0.509777
  O       2.383941     -0.504698     -0.996287
  C       1.394691     -0.097099     -1.956467
  H       1.863043      0.151788     -2.915646
  H       0.924138      0.789166     -1.530763
  H       0.646321     -0.884355     -2.103068
  C       6.915068     -4.387494      0.248113
  O       5.840774     -2.751218      1.606019
  C       7.936355     -4.784644      1.137473
  H       6.907857     -4.851853     -0.727905
  O       8.129535     -4.290766      2.303485
  Li      7.026799     -3.018298      2.946846
  C       8.899138     -5.847609      0.697560
  C       8.607804     -6.769585     -0.319934
  C      10.137035     -5.941371      1.354637
  C      11.061785     -6.914645      0.998713
  C      10.775067     -7.812974     -0.039214
  C       9.536719     -7.736865     -0.691340
  C      11.764676     -8.891722     -0.335991
  O      12.104122     -9.158714     -1.618769
  O      12.276611     -9.562228      0.546280
  C      11.778044     -8.241802     -2.701192
  H      10.833955     -8.538357     -3.162305
  H      12.593932     -8.345340     -3.416873
  H      11.720066     -7.215197     -2.336093
  H       9.282797     -8.452087     -1.467455
  H       7.642492     -6.755123     -0.815348
  H      12.013980     -6.984682      1.515799
  H      10.355921     -5.237352      2.150661
39
Coordinates from ORCA-job Li-Aldol_freqopt E -1079.340169046312
  C       3.141993     -1.607327     -1.303985
  C       2.980496     -2.372650     -2.466500
  C       3.784762     -3.502164     -2.650699
  C       4.740985     -3.869922     -1.710012
  C       4.907287     -3.099297     -0.542860
  C       4.096894     -1.976447     -0.350919
  H       4.215637     -1.380919      0.548111
  H       2.245607     -2.106337     -3.217475
  H       3.653641     -4.101875     -3.547257
  H       5.336202     -4.759606     -1.881512
  C       5.913841     -3.422901      0.522539
  O       2.413231     -0.484613     -1.015437
  C       1.429140     -0.074236     -1.979964
  H       1.899915      0.153766     -2.943157
  H       0.973560      0.825262     -1.565945
  H       0.667976     -0.851246     -2.114829
  C       6.905522     -4.398193      0.257041
  O       5.819440     -2.775503      1.622525
  C       7.925532     -4.797107      1.147502
  H       6.905876     -4.853757     -0.723226
  O       8.112525     -4.312323      2.318422
  Li      7.002476     -3.047549      2.968643
  C       8.895468     -5.850817      0.702295
  C       8.604931     -6.774479     -0.313870
  C      10.137422     -5.934851      1.352816
  C      11.067285     -6.901206      0.991562
  C      10.781107     -7.801632     -0.044728
  C       9.538909     -7.735156     -0.690276
  C      11.776113     -8.874198     -0.345533
  O      12.112769     -9.139927     -1.629471
  O      12.296182     -9.541175      0.534670
  C      11.775789     -8.228518     -2.713006
  H      10.836196     -8.539207     -3.174018
  H      12.593638     -8.321131     -3.427969
  H      11.702970     -7.202271     -2.349591
  H       9.286262     -8.452385     -1.464918
  H       7.636516     -6.765814     -0.803237
  H      12.023035     -6.964077      1.502901
  H      10.355690     -5.229427      2.147721
39
Coordinates from ORCA-job Li-Aldol_freqopt E -1079.340182238761
  C       3.155426     -1.602521     -1.310511
  C       2.971787     -2.386529     -2.457015
  C       3.751203     -3.535864     -2.623221
  C       4.705349     -3.904413     -1.680865
  C       4.893119     -3.114839     -0.530072
  C       4.106891     -1.972572     -0.354606
  H       4.241715     -1.363171      0.532679
  H       2.238096     -2.119623     -3.208876
  H       3.601897     -4.150560     -3.506658
  H       5.281044     -4.809890     -1.835714
  C       5.898026     -3.441243      0.534974
  O       2.451508     -0.459203     -1.040034
  C       1.470583     -0.047055     -2.007539
  H       1.941082      0.152304     -2.977152
  H       1.036594      0.869460     -1.608056
  H       0.693022     -0.810773     -2.122899
  C       6.893634     -4.411140      0.265238
  O       5.800479     -2.799830      1.637964
  C       7.913315     -4.811040      1.155414
  H       6.899778     -4.858999     -0.718717
  O       8.095177     -4.334089      2.330362
  Li      6.980192     -3.076753      2.988296
  C       8.890361     -5.855681      0.705395
  C       8.602791     -6.779341     -0.311572
  C      10.134691     -5.931463      1.351797
  C      11.070056     -6.890532      0.985651
  C      10.786639     -7.790943     -0.051131
  C       9.542152     -7.732734     -0.692715
  C      11.787502     -8.856453     -0.356307
  O      12.123723     -9.117955     -1.641553
  O      12.313667     -9.522258      0.520993
  C      11.779213     -8.206982     -2.723511
  H      10.843197     -8.526764     -3.185381
  H      12.599132     -8.289919     -3.437236
  H      11.695951     -7.182474     -2.357598
  H       9.292407     -8.450625     -1.467579
  H       7.632254     -6.775094     -0.796629
  H      12.027958     -6.947445      1.493515
  H      10.351208     -5.226206      2.147222
39
Coordinates from ORCA-job Li-Aldol_freqopt E -1079.340194300192
  C       3.168727     -1.597609     -1.317548
  C       2.960149     -2.401543     -2.445504
  C       3.714210     -3.569919     -2.593130
  C       4.668374     -3.937557     -1.650665
  C       4.880560     -3.128000     -0.518504
  C       4.119274     -1.966709     -0.360441
  H       4.272543     -1.342390      0.513289
  H       2.225909     -2.135264     -3.197018
  H       3.544607     -4.200212     -3.461756
  H       5.224436     -4.858054     -1.787969
  C       5.885899     -3.455480      0.544893
  O       2.490419     -0.434402     -1.066001
  C       1.508851     -0.023255     -2.033795
  H       1.974811      0.145047     -3.011369
  H       1.098216      0.910398     -1.649744
  H       0.715096     -0.773430     -2.124623
  C       6.882502     -4.422783      0.271583
  O       5.789425     -2.816278      1.649030
  C       7.903137     -4.822678      1.159974
  H       6.890168     -4.866284     -0.714527
  O       8.082432     -4.350052      2.336993
  Li      6.966709     -3.097061      3.001274
  C       8.885027     -5.861248      0.706515
  C       8.602323     -6.781816     -0.314604
  C      10.128996     -5.934025      1.353358
  C      11.068835     -6.887296      0.983628
  C      10.790207     -7.784168     -0.057127
  C       9.545981     -7.729077     -0.699376
  C      11.795831     -8.843602     -0.366602
  O      12.133783     -9.097905     -1.653127
  O      12.324304     -9.511591      0.507434
  C      11.787336     -8.181102     -2.730332
  H      10.852591     -8.501319     -3.194204
  H      12.608618     -8.258014     -3.443088
  H      11.701423     -7.159318     -2.357683
  H       9.300328     -8.444837     -1.477415
  H       7.631707     -6.778681     -0.799417
  H      12.026528     -6.942155      1.492017
  H      10.342550     -5.231541      2.151935
39
Coordinates from ORCA-job Li-Aldol_freqopt E -1079.340207194437
  C       3.194595     -1.589290     -1.332029
  C       2.935663     -2.430506     -2.421319
  C       3.639909     -3.633376     -2.531188
  C       4.595463     -3.998489     -1.589391
  C       4.857565     -3.151689     -0.496049
  C       4.145094     -1.955909     -0.373794
  H       4.336001     -1.303277      0.471347
  H       2.199492     -2.166108     -3.171609
  H       3.429432     -4.292447     -3.368932
  H       5.112408     -4.946076     -1.691370
  C       5.865031     -3.479463      0.564145
  O       2.566952     -0.390302     -1.119543
  C       1.582196      0.017402     -2.086110
  H       2.034733      0.124309     -3.078377
  H       1.217297      0.982377     -1.734820
  H       0.758320     -0.704046     -2.127665
  C       6.862039     -4.443830      0.284421
  O       5.772290     -2.841444      1.668982
  C       7.885389     -4.843651      1.168684
  H       6.869582     -4.880350     -0.705140
  O       8.061663     -4.377383      2.348542
  Li      6.946901     -3.129409      3.023276
  C       8.874819     -5.872373      0.708465
  C       8.602780     -6.783456     -0.324044
  C      10.116267     -5.944255      1.359624
  C      11.064025     -6.887052      0.983103
  C      10.796071     -7.773459     -0.068900
  C       9.554116     -7.719477     -0.715785
  C      11.810155     -8.821820     -0.387404
  O      12.151986     -9.059678     -1.676301
  O      12.341195     -9.496058      0.480037
  C      11.804552     -8.128681     -2.742095
  H      10.871235     -8.444968     -3.211202
  H      12.627726     -8.194926     -3.453661
  H      11.716649     -7.112677     -2.354668
  H       9.317094     -8.427941     -1.503039
  H       7.633808     -6.780199     -0.812098
  H      12.019695     -6.941444      1.495286
  H      10.322633     -5.249791      2.166972
39
Coordinates from ORCA-job Li-Aldol_freqopt E -1079.340214546127
  C       3.193434     -1.589235     -1.331796
  C       2.932572     -2.432996     -2.418779
  C       3.637059     -3.635895     -2.527798
  C       4.594492     -3.998924     -1.587047
  C       4.858336     -3.150096     -0.495647
  C       4.145961     -1.954050     -0.374696
  H       4.338576     -1.299254      0.468473
  H       2.194961     -2.170358     -3.168315
  H       3.425394     -4.296452     -3.364078
  H       5.112027     -4.946319     -1.688397
  C       5.868015     -3.475642      0.563375
  O       2.566458     -0.389865     -1.120972
  C       1.580444      0.016102     -2.086761
  H       2.031520      0.121635     -3.079820
  H       1.215540      0.981593     -1.736806
  H       0.756642     -0.705540     -2.126288
  C       6.862237     -4.443047      0.283878
  O       5.779326     -2.833612      1.666285
  C       7.887211     -4.841755      1.166805
  H       6.864987     -4.882852     -0.704264
  O       8.065768     -4.371964      2.344864
  Li      6.955285     -3.120500      3.017946
  C       8.874518     -5.873132      0.707400
  C       8.603901     -6.781000     -0.328364
  C      10.113834     -5.950057      1.362299
  C      11.060710     -6.894073      0.986375
  C      10.794348     -7.776954     -0.069077
  C       9.554409     -7.718014     -0.719646
  C      11.807470     -8.826275     -0.388110
  O      12.151631     -9.060520     -1.676895
  O      12.335039     -9.503964      0.478824
  C      11.809162     -8.124274     -2.739671
  H      10.874051     -8.433129     -3.210212
  H      12.631740     -8.193024     -3.451702
  H      11.727189     -7.109044     -2.348886
  H       9.318253     -8.423610     -1.509770
  H       7.636826     -6.774952     -0.820189
  H      12.014525     -6.952090      1.501682
  H      10.318971     -5.258076      2.172130
39
Coordinates from ORCA-job Li-Aldol_freqopt E -1079.340222340482
  C       3.199242     -1.586934     -1.335757
  C       2.919146     -2.445559     -2.406592
  C       3.607746     -3.659014     -2.501669
  C       4.568697     -4.018368     -1.562870
  C       4.851888     -3.155234     -0.487489
  C       4.154942     -1.948755     -0.380315
  H       4.362000     -1.282228      0.450332
  H       2.178591     -2.186368     -3.154508
  H       3.380781     -4.330477     -3.325184
  H       5.073652     -4.973836     -1.652056
  C       5.865819     -3.476860      0.569101
  O       2.589385     -0.376711     -1.140324
  C       1.601565      0.026157     -2.105020
  H       2.046295      0.111603     -3.102934
  H       1.249726      1.001146     -1.768085
  H       0.768893     -0.686005     -2.128484
  C       6.856372     -4.448091      0.287945
  O       5.784315     -2.827573      1.668405
  C       7.885184     -4.845106      1.167538
  H       6.851256     -4.890095     -0.699143
  O       8.066743     -4.371681      2.343571
  Li      6.963395     -3.114620      3.015894
  C       8.871268     -5.877296      0.706597
  C       8.605941     -6.776131     -0.338466
  C      10.106383     -5.963032      1.368938
  C      11.053994     -6.905855      0.991492
  C      10.793288     -7.779070     -0.073623
  C       9.557462     -7.711436     -0.731571
  C      11.806983     -8.827160     -0.396180
  O      12.157285     -9.049963     -1.685006
  O      12.328713     -9.512898      0.468134
  C      11.823867     -8.101975     -2.739858
  H      10.887644     -8.398450     -3.216296
  H      12.647098     -8.170259     -3.451235
  H      11.748436     -7.089625     -2.340233
  H       9.325033     -8.409515     -1.529517
  H       7.642819     -6.765673     -0.837970
  H      12.004156     -6.970284      1.512897
  H      10.306816     -5.277982      2.185894
39
Coordinates from ORCA-job Li-Aldol_freqopt E -1079.340223697856
  C       3.196193     -1.587437     -1.334115
  C       2.918530     -2.445072     -2.406562
  C       3.610990     -3.656234     -2.503857
  C       4.573214     -4.014361     -1.565779
  C       4.853980     -3.152218     -0.488855
  C       4.153262     -1.948102     -0.379616
  H       4.358302     -1.282175      0.452026
  H       2.177070     -2.187065     -3.153986
  H       3.386091     -4.326948     -3.328560
  H       5.081011     -4.968094     -1.657447
  C       5.869387     -3.472034      0.567021
  O       2.582609     -0.379502     -1.136545
  C       1.594367      0.022279     -2.101060
  H       2.039468      0.111601     -3.098550
  H       1.238591      0.995313     -1.762585
  H       0.763975     -0.692477     -2.127353
  C       6.858770     -4.444910      0.286364
  O       5.789441     -2.820283      1.665060
  C       7.888292     -4.841736      1.165611
  H       6.851209     -4.888609     -0.699863
  O       8.071338     -4.366483      2.340704
  Li      6.970520     -3.106096      3.010509
  C       8.872397     -5.875968      0.705429
  C       8.606429     -6.773122     -0.340908
  C      10.106336     -5.965539      1.369718
  C      11.052050     -6.910563      0.993190
  C      10.790837     -7.782133     -0.073291
  C       9.556372     -7.710550     -0.733290
  C      11.802203     -8.832852     -0.394813
  O      12.155969     -9.054230     -1.682870
  O      12.319316     -9.521661      0.469901
  C      11.828341     -8.104181     -2.737289
  H      10.892454     -8.396972     -3.216754
  H      12.653003     -8.173894     -3.446888
  H      11.754704     -7.091905     -2.337026
  H       9.323346     -8.407186     -1.532333
  H       7.644512     -6.760382     -0.842615
  H      12.001177     -6.977939      1.516111
  H      10.306762     -5.281491      2.187519
39
Coordinates from ORCA-job Li-Aldol_freqopt E -1079.340224586049
  C       3.198927     -1.586736     -1.335763
  C       2.913622     -2.449940     -2.401769
  C       3.599739     -3.665152     -2.493206
  C       4.563229     -4.021859     -1.555846
  C       4.851445     -3.154089     -0.485467
  C       4.157031     -1.945905     -0.381790
  H       4.367546     -1.275552      0.444898
  H       2.171139     -2.193215     -3.148592
  H       3.368799     -4.340232     -3.312658
  H       5.065781     -4.978836     -1.642597
  C       5.868307     -3.472642      0.569249
  O       2.591913     -0.374445     -1.144232
  C       1.602729      0.025835     -2.108352
  H       2.045173      0.106403     -3.107790
  H       1.252632      1.002795     -1.775317
  H       0.768727     -0.684948     -2.127617
  C       6.857067     -4.446006      0.287699
  O       5.790018     -2.819386      1.666520
  C       7.887457     -4.843069      1.165995
  H       6.847992     -4.889253     -0.698722
  O       8.070943     -4.368169      2.341186
  Li      6.972385     -3.105765      3.010667
  C       8.871466     -5.876868      0.704990
  C       8.606656     -6.770755     -0.344416
  C      10.104130     -5.969334      1.371328
  C      11.049640     -6.914201      0.994091
  C      10.789648     -7.782414     -0.075441
  C       9.556673     -7.707841     -0.737714
  C      11.800456     -8.833325     -0.397895
  O      12.158343     -9.050015     -1.685639
  O      12.313817     -9.526369      0.465672
  C      11.834936     -8.095939     -2.737533
  H      10.900302     -8.386213     -3.220984
  H      12.661745     -8.163575     -3.444830
  H      11.760688     -7.084982     -2.334009
  H       9.324666     -8.401780     -1.539384
  H       7.645954     -6.755959     -0.848287
  H      11.997699     -6.983920      1.518622
  H      10.303401     -5.287557      2.191287
