! PW6B95 D3BJ def2-QZVP RIJK def2/JK tightSCF CPCM(THF)
! sp Pal4

* xyz 0 1
  N   -3.72544651311519     -2.52549028050249     -0.76836648044939
  C   -2.27269263840620     -2.63880249215030     -0.71039109282230
  C   -4.30864372083295     -1.88576049696919      0.40020635052361
  C   -1.54074891255012     -1.58777016442179     -1.57709319085451
  C   -1.83237996503383     -4.04598514697043     -1.15304585331175
  H   -1.92809171138703     -2.50052257354958      0.33319835898271
  C   -3.94100930689546     -0.39477606738620      0.58051560566855
  H   -3.97654073443705     -2.39812382506038      1.33189626409078
  C   -5.83525476008701     -2.02383769728356      0.32678060650311
  H   -1.81791078904355     -1.72813471981225     -2.63070393040610
  H   -0.44742839574325     -1.67449187677809     -1.49672502134296
  H   -1.82954278766791     -0.57292533665543     -1.28762708480735
  H   -2.18825300511201     -4.23882114534168     -2.17538411956255
  H   -2.26687034625943     -4.80648236828059     -0.49495145454080
  H   -0.73997763410542     -4.15948177374645     -1.15243712537940
  H   -2.85782962626746     -0.26948798253131      0.67998229531393
  H   -4.41329580938757      0.02972729929770      1.47778825779703
  H   -4.27145214099030      0.17893672771385     -0.29584395750726
  H   -6.21793900037355     -1.50321504096535     -0.56622121017489
  H   -6.33347308872677     -1.57890684507044      1.19526698996810
  H   -6.12774572904286     -3.08130156835528      0.27179485147036
  Li  -4.87037590323507     -3.02296020528067     -2.06578767365891
*
