21
 energy: -32.268075700053 gnorm: 0.000120186469 xtb: 6.4.1 (afa7bdf)
C        -3.19833807720901    1.48745500291479    0.00712184936038
C        -3.27578084423221    0.10189228456493   -0.02149040487587
C        -2.09964468057165   -0.63394109285668   -0.04255402532694
C        -0.86566990684587   -0.01970570645824   -0.03536207360325
C        -0.76987401542452    1.37425015594840   -0.00510550830379
C        -1.95154616591154    2.10292595084601    0.01533549945733
H        -1.91649346607380    3.18614997812921    0.03890228996835
H        -4.22399790904740   -0.41232174671867   -0.02810116033938
H        -2.16027043604727   -1.71293401071671   -0.06555784970189
H         0.02216086401624   -0.62918904223287   -0.05459641358237
C         0.52851714291739    2.09590159066273    0.00503181733788
C         1.70784592077613    1.45788879641918    0.01488852573264
H         1.80330386901837    0.39064572084607    0.01756903209043
H         2.62067102893972    2.03028046419349    0.02282116363503
O         0.46652725592970    3.42148514552000    0.00554290583425
Li        0.28471315632226    4.96752365244343    0.01306624211671
O        -4.27530438373791    2.33477194702020    0.02855622787467
C        -5.56284401398073    1.77263581583744    0.02193972867142
H        -5.74059219791599    1.18091535257710   -0.88250848301571
H        -6.25445115235974    2.61403049288821    0.04102270298693
H        -5.73426491456224    1.14554053227188    0.90347661958315
