! TPSS D3BJ def2-TZVP RI def2/J CPCM(THF)
! Opt numfreq Pal4
! SlowConv

* xyz 0 1
C        -5.06473802321747   -0.08461042010810    0.21009624509569
C        -5.16617045962520   -1.45775027547744   -0.00920740873201
C        -4.02569995404491   -2.18743214225424   -0.34332449723516
C        -2.80305019316509   -1.55793352413384   -0.45833855387515
C        -2.69528680699477   -0.18515385231650   -0.24007713662487
C        -3.84052475903621    0.54044509854754    0.08847918082753
C        -1.40678854789076    0.54848923964513   -0.40771600730913
H        -3.74788145062861    1.60480993231450    0.24259555358769
H        -5.94652776594719    0.48048324622726    0.46581715769162
H        -4.12389869889584   -3.24825475133535   -0.51839236092460
H        -1.93485577847519   -2.12826935003008   -0.74697377475644
C        -0.21525780734539   -0.10900492156817   -0.09629070408021
C         1.04617567134891    0.47325806528997   -0.28323997724847
C         2.26688992019173   -0.32114714898133    0.02552496387005
C         2.29253696515538   -1.71034568538045   -0.09340348401708
C         3.45910585369174   -2.41246416085930    0.18022911192294
C         4.60648926337402   -1.71889504454373    0.57423669583304
C         4.58089293023648   -0.34367768145007    0.68296574540516
C         3.42027007505712    0.35814455457858    0.40556311791246
H         3.38784155175873    1.43379914810403    0.48240045767376
H         1.40837590442795   -2.22707241213166   -0.42669131611622
H         5.50114430369533   -2.28417105946196    0.78154556969938
H         5.47277980767591    0.18566893922504    0.98151428619595
H        -0.27185737664755   -1.09496324806249    0.33078652123555
O         1.21444282841879    1.65455422235761   -0.70457285103207
O        -1.47652249673646    1.73987575123867   -0.83218225620661
O         3.58985553017002   -3.76575299486799    0.09262219529856
C         2.46636475575920   -4.54049962784494   -0.27413755238512
H         1.64958484328761   -4.42039248406424    0.44361466319171
H         2.81216557789627   -5.57256786764241   -0.26113492844369
H         2.11626829806283   -4.28612473964078   -1.27879444751937
Li       -0.07901658354919    2.72116458548089   -1.16712282138197
C        -6.45980988347264   -2.17203547436064    0.07610558798094
O        -7.48565723540056   -1.36166158244568    0.35170639363009
O        -6.59187269264676   -3.36653973872257   -0.09306078172371
C        -8.77479068765893   -1.96462328028193    0.43780726442678
H        -8.98587304443535   -2.53290734922007   -0.47002030841328
H        -9.47787351280386   -1.14488291817478    0.55621495091655
H        -8.81737035548917   -2.63948412584707    1.29485541183413
*
