23
Coordinates from ORCA-job DiPA-H_sp E -293.063648242451
  N       1.483914     -2.150862      0.613478
  C       2.757342     -1.302633      0.641559
  H       1.787516     -3.130305      0.578534
  C       0.442869     -1.970254     -0.511326
  C       1.134882     -1.836727     -1.860570
  C      -0.528432     -0.838478     -0.194863
  H      -0.101985     -2.917983     -0.474008
  C       3.663959     -1.900899      1.714583
  C       2.446361      0.166717      0.893981
  H       3.209008     -1.439212     -0.343014
  H       3.214810     -1.796329      2.708245
  H       4.616679     -1.365606      1.709925
  H       3.863903     -2.960229      1.522971
  H       1.846326      0.288958      1.802019
  H       1.927133      0.632130      0.054853
  H       3.393598      0.693514      1.037415
  H       1.660157     -0.881770     -1.952182
  H       0.368794     -1.876343     -2.639680
  H       1.840581     -2.655006     -2.034610
  H      -0.073817      0.146272     -0.316516
  H      -0.925687     -0.927877      0.821485
  H      -1.367254     -0.912841     -0.892626
  H       1.003173     -2.043346      1.514638
23
Coordinates from ORCA-job DiPA-H_sp E -293.063648288570
  N       1.483889     -2.150890      0.613487
  C       2.757288     -1.302616      0.641577
  H       1.787638     -3.130267      0.578351
  C       0.442867     -1.970333     -0.511308
  C       1.134847     -1.836765     -1.860540
  C      -0.528355     -0.838463     -0.194882
  H      -0.102059     -2.918018     -0.473953
  C       3.663956     -1.900882      1.714542
  C       2.446317      0.166748      0.894053
  H       3.208881     -1.439116     -0.343043
  H       3.214901     -1.796225      2.708234
  H       4.616711     -1.365652      1.709752
  H       3.863819     -2.960236      1.522976
  H       1.846233      0.289041      1.802062
  H       1.927182      0.632208      0.054889
  H       3.393570      0.693504      1.037568
  H       1.660076     -0.881793     -1.952235
  H       0.368707     -1.876547     -2.639588
  H       1.840638     -2.654986     -2.034523
  H      -0.073562      0.146226     -0.316388
  H      -0.925775     -0.927834      0.821382
  H      -1.367075     -0.912678     -0.892780
  H       1.003137     -2.043536      1.514658
