! PW6B95 D3BJ def2-QZVP RIJK def2/JK tightSCF CPCM(THF)
! sp Pal4

* xyz +1 1  
  N   1.48391354615572     -2.15086196101629      0.61347790067494
  C   2.75734235828868     -1.30263349914529      0.64155902286537
  H   1.78751569220524     -3.13030474086719      0.57853389946710
  C   0.44286937793798     -1.97025424318919     -0.51132585409553
  C   1.13488222172248     -1.83672729559826     -1.86057002431144
  C   -0.52843176985759     -0.83847766607363     -0.19486337798060
  H   -0.10198489219612     -2.91798271303701     -0.47400779914047
  C   3.66395937310729     -1.90089926755889      1.71458327272623
  C   2.44636078711554      0.16671692838786      0.89398117220978
  H   3.20900759657875     -1.43921190360283     -0.34301394544365
  H   3.21481006353462     -1.79632924312437      2.70824499705435
  H   4.61667947594364     -1.36560633581655      1.70992511744101
  H   3.86390333181875     -2.96022903900265      1.52297098166676
  H   1.84632642319478      0.28895759718488      1.80201885745954
  H   1.92713259941949      0.63213028007859      0.05485321730441
  H   3.39359823270382      0.69351386571185      1.03741482034055
  H   1.66015666265679     -0.88177002884376     -1.95218210671601
  H   0.36879398673038     -1.87634277376371     -2.63968024849340
  H   1.84058110362355     -2.65500606690652     -2.03461047391930
  H   -0.07381729038487      0.14627215292852     -0.31651626902576
  H   -0.92568734657167     -0.92787716871734      0.82148544742114
  H   -1.36725381780282     -0.91284123671354     -0.89262637016792
  H   1.00317274786142     -2.04334603849394      1.51463799816672
*
