21
Coordinates from ORCA-job Keton-Li_freqopt E -506.675818127013
  C      -3.202273      1.505277      0.005183
  C      -3.296402      0.111280     -0.017416
  C      -2.111492     -0.637378     -0.032772
  C      -0.865385     -0.023859     -0.026041
  C      -0.765466      1.382746     -0.003140
  C      -1.947290      2.127829      0.011918
  H      -1.894677      3.211225      0.029459
  H      -4.256023     -0.392743     -0.023311
  H      -2.176350     -1.722424     -0.050591
  H       0.028080     -0.638479     -0.038941
  C       0.548625      2.113325      0.005431
  C       1.754703      1.764429      0.535669
  H       1.882376      0.887920      1.159003
  H       2.630468      2.375726      0.337601
  O       0.380096      3.177759     -0.753039
  Li      0.098652      4.505512     -1.706431
  O      -4.284907      2.351740      0.021912
  C      -5.586733      1.745114      0.015691
  H      -5.731712      1.143018     -0.888887
  H      -6.294975      2.573902      0.028948
  H      -5.728366      1.117376      0.903252
21
Coordinates from ORCA-job Keton-Li_freqopt E -506.682241118943
  C      -3.209995      1.502395     -0.005657
  C      -3.289013      0.105361      0.005006
  C      -2.098398     -0.630696      0.001841
  C      -0.858514     -0.000318     -0.009099
  C      -0.775669      1.405117     -0.036351
  C      -1.964020      2.140157     -0.026232
  H      -1.925369      3.224061     -0.037385
  H      -4.243300     -0.408627      0.015353
  H      -2.151487     -1.716644      0.006328
  H       0.047350     -0.599813     -0.015835
  C       0.543454      2.130715     -0.083380
  C       1.695719      1.711060      0.499756
  H       1.741320      0.813964      1.109358
  H       2.603862      2.292920      0.378409
  O       0.460427      3.261842     -0.775576
  Li      0.285855      4.667004     -1.638927
  O      -4.302653      2.336278      0.001931
  C      -5.597150      1.714265      0.026500
  H      -5.744873      1.086904     -0.860307
  H      -6.315011      2.534788      0.026036
  H      -5.721584      1.108562      0.931728
21
Coordinates from ORCA-job Keton-Li_freqopt E -506.684182278694
  C      -3.213920      1.506661     -0.029582
  C      -3.272027      0.109582      0.050648
  C      -2.072718     -0.610851      0.078215
  C      -0.841589      0.036763      0.030638
  C      -0.783222      1.439358     -0.051100
  C      -1.978288      2.160866     -0.085270
  H      -1.954558      3.244282     -0.154580
  H      -4.219482     -0.415866      0.083644
  H      -2.111147     -1.696133      0.127703
  H       0.077517     -0.542487      0.040694
  C       0.524248      2.167582     -0.121521
  C       1.645518      1.625849      0.418184
  H       1.630898      0.664693      0.922784
  H       2.586869      2.164223      0.361984
  O       0.497507      3.355200     -0.716303
  Li      0.386435      4.833674     -1.458070
  O      -4.319364      2.323023     -0.057964
  C      -5.604508      1.684412      0.006911
  H      -5.749281      1.012068     -0.846708
  H      -6.334089      2.493751     -0.028734
  H      -5.713851      1.122646      0.941924
21
Coordinates from ORCA-job Keton-Li_freqopt E -506.684425918951
  C      -3.211704      1.505108     -0.038193
  C      -3.272803      0.111020      0.071651
  C      -2.074800     -0.612194      0.108964
  C      -0.842106      0.029635      0.045477
  C      -0.779446      1.432036     -0.058669
  C      -1.973823      2.154604     -0.109817
  H      -1.947393      3.236113     -0.201669
  H      -4.221742     -0.410860      0.116937
  H      -2.116389     -1.696305      0.177425
  H       0.073740     -0.552429      0.056183
  C       0.526299      2.165323     -0.134039
  C       1.657739      1.614116      0.382403
  H       1.651165      0.641848      0.861417
  H       2.596479      2.159308      0.338929
  O       0.481244      3.371221     -0.676773
  Li      0.343520      4.877867     -1.354557
  O      -4.315625      2.322535     -0.085049
  C      -5.602191      1.687981     -0.009938
  H      -5.748956      1.002456     -0.852725
  H      -6.329886      2.498384     -0.058445
  H      -5.712373      1.141528      0.933985
21
Coordinates from ORCA-job Keton-Li_freqopt E -506.684567769944
  C      -3.212068      1.503680     -0.046944
  C      -3.275409      0.113611      0.091769
  C      -2.077575     -0.610419      0.145652
  C      -0.844045      0.026270      0.074433
  C      -0.776934      1.428484     -0.054860
  C      -1.971830      2.149386     -0.127443
  H      -1.943095      3.228534     -0.238311
  H      -4.225429     -0.405387      0.146851
  H      -2.121370     -1.692921      0.235498
  H       0.068531     -0.559161      0.092759
  C       0.525859      2.173521     -0.124253
  C       1.676674      1.600775      0.332402
  H       1.685164      0.609342      0.767136
  H       2.615268      2.146349      0.285153
  O       0.464493      3.390390     -0.622195
  Li      0.302359      4.917760     -1.246545
  O      -4.314783      2.320948     -0.115344
  C      -5.602390      1.689361     -0.034586
  H      -5.748676      0.992781     -0.868475
  H      -6.328728      2.500163     -0.095553
  H      -5.715067      1.155828      0.916352
21
Coordinates from ORCA-job Keton-Li_freqopt E -506.684583508987
  C      -3.212194      1.502633     -0.049996
  C      -3.276101      0.113245      0.093791
  C      -2.077921     -0.609975      0.155104
  C      -0.844488      0.026333      0.084951
  C      -0.776609      1.427695     -0.051817
  C      -1.971493      2.147835     -0.128273
  H      -1.942152      3.226720     -0.241981
  H      -4.226080     -0.405756      0.148992
  H      -2.121632     -1.691940      0.251418
  H       0.067826     -0.560103      0.111486
  C       0.525564      2.173832     -0.124880
  C       1.680000      1.596959      0.315667
  H       1.693095      0.600314      0.740123
  H       2.617728      2.143288      0.266615
  O       0.460286      3.395865     -0.609576
  Li      0.293805      4.929893     -1.216862
  O      -4.314147      2.320438     -0.123693
  C      -5.602240      1.690126     -0.041158
  H      -5.748055      0.989749     -0.871951
  H      -6.327984      2.501100     -0.106555
  H      -5.716259      1.161042      0.912094
21
Coordinates from ORCA-job Keton-Li_freqopt E -506.684593670132
  C      -3.212731      1.501201     -0.052351
  C      -3.277733      0.112525      0.096225
  C      -2.079135     -0.609697      0.166223
  C      -0.845685      0.026148      0.098209
  C      -0.776403      1.426542     -0.046209
  C      -1.971370      2.145566     -0.127968
  H      -1.941152      3.224081     -0.244737
  H      -4.227652     -0.406720      0.149744
  H      -2.122792     -1.691091      0.268849
  H       0.065314     -0.562248      0.134814
  C       0.525316      2.173702     -0.123562
  C       1.685160      1.593601      0.295504
  H       1.706499      0.591430      0.707328
  H       2.621225      2.141962      0.241345
  O       0.455205      3.401876     -0.594012
  Li      0.285185      4.943187     -1.182867
  O      -4.313465      2.319926     -0.133653
  C      -5.602220      1.691217     -0.049355
  H      -5.747198      0.986094     -0.876273
  H      -6.327254      2.502335     -0.120496
  H      -5.718163      1.167659      0.906739
21
Coordinates from ORCA-job Keton-Li_freqopt E -506.684595703222
  C      -3.213077      1.500799     -0.053617
  C      -3.278224      0.112430      0.097603
  C      -2.079432     -0.609353      0.170107
  C      -0.845965      0.026450      0.101793
  C      -0.776526      1.426539     -0.045544
  C      -1.971668      2.145010     -0.129701
  H      -1.941367      3.223275     -0.248529
  H      -4.228018     -0.407027      0.151164
  H      -2.122911     -1.690540      0.274916
  H       0.064366     -0.562669      0.141058
  C       0.524994      2.173666     -0.123228
  C       1.686172      1.592213      0.289810
  H       1.710067      0.588279      0.696855
  H       2.621807      2.141316      0.234713
  O       0.454274      3.404195     -0.588495
  Li      0.285756      4.948368     -1.170905
  O      -4.313638      2.319556     -0.137420
  C      -5.602425      1.691070     -0.051564
  H      -5.747819      0.984585     -0.877245
  H      -6.327483      2.502079     -0.123709
  H      -5.717931      1.169056      0.905436
21
Coordinates from ORCA-job Keton-Li_freqopt E -506.684597462345
  C      -3.213465      1.500510     -0.054768
  C      -3.278710      0.112413      0.098848
  C      -2.079806     -0.609058      0.173121
  C      -0.846248      0.026696      0.104365
  C      -0.776784      1.426596     -0.045290
  C      -1.972089      2.144635     -0.131599
  H      -1.941729      3.222640     -0.252565
  H      -4.228372     -0.407245      0.152616
  H      -2.123113     -1.690090      0.279532
  H       0.063326     -0.563281      0.145224
  C       0.524524      2.173390     -0.122741
  C       1.686982      1.591312      0.285863
  H       1.713726      0.586072      0.689095
  H       2.621895      2.141686      0.230005
  O       0.453338      3.405783     -0.583952
  Li      0.288351      4.952391     -1.161715
  O      -4.313995      2.319189     -0.140609
  C      -5.602746      1.690787     -0.053091
  H      -5.748940      0.983585     -0.878021
  H      -6.327905      2.501704     -0.125278
  H      -5.717292      1.169582      0.904459
21
Coordinates from ORCA-job Keton-Li_freqopt E -506.684598697786
  C      -3.213748      1.500435     -0.055216
  C      -3.278893      0.112429      0.099299
  C      -2.079950     -0.608899      0.174006
  C      -0.846364      0.026930      0.104960
  C      -0.777098      1.426803     -0.045421
  C      -1.972491      2.144677     -0.132495
  H      -1.942166      3.222563     -0.254428
  H      -4.228469     -0.407368      0.153246
  H      -2.123096     -1.689889      0.280886
  H       0.062922     -0.563379      0.145970
  C       0.524090      2.173300     -0.122523
  C       1.686970      1.591049      0.284953
  H       1.714988      0.585424      0.686961
  H       2.621444      2.142222      0.228957
  O       0.452962      3.406275     -0.582431
  Li      0.292386      4.953910     -1.159232
  O      -4.314433      2.318892     -0.141781
  C      -5.603077      1.690373     -0.053338
  H      -5.749813      0.983101     -0.878117
  H      -6.328372      2.501210     -0.125088
  H      -5.716846      1.169235      0.904329
21
Coordinates from ORCA-job Keton-Li_freqopt E -506.684600904628
  C      -3.214214      1.500300     -0.055647
  C      -3.279141      0.112349      0.099487
  C      -2.080186     -0.608857      0.174383
  C      -0.846586      0.027130      0.105131
  C      -0.777695      1.427032     -0.045615
  C      -1.973154      2.144812     -0.133225
  H      -1.942822      3.222598     -0.255975
  H      -4.228630     -0.407594      0.153611
  H      -2.123102     -1.689831      0.281524
  H       0.062509     -0.563406      0.145892
  C       0.523317      2.173290     -0.122270
  C       1.686670      1.591195      0.284676
  H       1.716284      0.585403      0.686018
  H       2.620404      2.143677      0.228567
  O       0.452054      3.406561     -0.581253
  Li      0.300788      4.955283     -1.158488
  O      -4.315200      2.318364     -0.142786
  C      -5.603674      1.689663     -0.053141
  H      -5.751175      0.982488     -0.877876
  H      -6.329133      2.500426     -0.124093
  H      -5.716365      1.168412      0.904575
21
Coordinates from ORCA-job Keton-Li_freqopt E -506.684603671988
  C      -3.214766      1.500049     -0.055792
  C      -3.279407      0.112102      0.099472
  C      -2.080442     -0.609012      0.174399
  C      -0.846893      0.027181      0.105122
  C      -0.778420      1.427119     -0.045608
  C      -1.973894      2.144888     -0.133316
  H      -1.943444      3.222633     -0.256394
  H      -4.228854     -0.407924      0.153649
  H      -2.123143     -1.689987      0.281617
  H       0.062318     -0.563193      0.145580
  C       0.522371      2.173603     -0.122131
  C       1.686145      1.591745      0.284457
  H       1.716962      0.585901      0.685562
  H       2.619180      2.145439      0.228245
  O       0.450422      3.406894     -0.580421
  Li      0.311961      4.956564     -1.159115
  O      -4.316066      2.317683     -0.143315
  C      -5.604385      1.688830     -0.052789
  H      -5.752381      0.981662     -0.877449
  H      -6.329953      2.499539     -0.123274
  H      -5.716364      1.167581      0.905000
21
Coordinates from ORCA-job Keton-Li_freqopt E -506.684606743086
  C      -3.215348      1.499610     -0.055639
  C      -3.279744      0.111658      0.099598
  C      -2.080745     -0.609377      0.174782
  C      -0.847310      0.026977      0.105645
  C      -0.779114      1.426893     -0.045124
  C      -1.974559      2.144681     -0.132741
  H      -1.943799      3.222422     -0.255825
  H      -4.229218     -0.408343      0.153713
  H      -2.123344     -1.690336      0.282231
  H       0.062316     -0.562828      0.146307
  C       0.521388      2.174309     -0.122121
  C       1.685761      1.592570      0.283052
  H       1.717308      0.586423      0.683450
  H       2.618311      2.147046      0.226624
  O       0.447693      3.407716     -0.579060
  Li      0.324022      4.958357     -1.158943
  O      -4.316817      2.316940     -0.143571
  C      -5.605075      1.688064     -0.052890
  H      -5.752954      0.980565     -0.877292
  H      -6.330641      2.498741     -0.123796
  H      -5.717185      1.167206      0.905098
21
Coordinates from ORCA-job Keton-Li_freqopt E -506.684608818594
  C      -3.215703      1.499195     -0.055220
  C      -3.280022      0.111267      0.100191
  C      -2.080952     -0.609677      0.175926
  C      -0.847633      0.026703      0.106894
  C      -0.779416      1.426520     -0.044314
  C      -1.974852      2.144258     -0.131942
  H      -1.943759      3.221991     -0.255040
  H      -4.229547     -0.408651      0.154237
  H      -2.123621     -1.690584      0.283877
  H       0.062435     -0.562476      0.148394
  C       0.520835      2.175096     -0.122213
  C       1.685836      1.593068      0.280329
  H       1.717306      0.586210      0.679101
  H       2.618474      2.147320      0.223674
  O       0.445094      3.409004     -0.577091
  Li      0.330860      4.960409     -1.156523
  O      -4.317091      2.316522     -0.143572
  C      -5.605404      1.687698     -0.053789
  H      -5.752379      0.979588     -0.877828
  H      -6.330904      2.498317     -0.126047
  H      -5.718610      1.167516      0.904453
21
Coordinates from ORCA-job Keton-Li_freqopt E -506.684609779478
  C      -3.215811      1.499002     -0.054759
  C      -3.280164      0.111103      0.100918
  C      -2.081020     -0.609757      0.177073
  C      -0.847761      0.026576      0.108029
  C      -0.779390      1.426306     -0.043680
  C      -1.974869      2.143934     -0.131421
  H      -1.943608      3.221650     -0.254652
  H      -4.229703     -0.408784      0.154980
  H      -2.123818     -1.690619      0.285438
  H       0.062495     -0.562307      0.150290
  C       0.520723      2.175555     -0.122256
  C       1.686155      1.593179      0.277994
  H       1.717170      0.585632      0.675143
  H       2.619194      2.146683      0.221229
  O       0.443692      3.410058     -0.575484
  Li      0.332171      4.961726     -1.153859
  O      -4.317032      2.316497     -0.143249
  C      -5.605419      1.687655     -0.054794
  H      -5.751308      0.979134     -0.878667
  H      -6.330895      2.498181     -0.128319
  H      -5.719853      1.167891      0.903545
21
Coordinates from ORCA-job Keton-Li_freqopt E -506.684610258230
  C      -3.215831      1.498983     -0.054353
  C      -3.280220      0.111106      0.101550
  C      -2.081018     -0.609688      0.177833
  C      -0.847775      0.026605      0.108677
  C      -0.779306      1.426301     -0.043359
  C      -1.974851      2.143819     -0.131199
  H      -1.943568      3.221508     -0.254642
  H      -4.229728     -0.408822      0.155710
  H      -2.123899     -1.690527      0.286399
  H       0.062458     -0.562283      0.151257
  C       0.520727      2.175726     -0.122237
  C       1.686423      1.593141      0.276621
  H       1.717086      0.585132      0.672647
  H       2.619817      2.146000      0.219873
  O       0.443168      3.410694     -0.574470
  Li      0.331750      4.962251     -1.152149
  O      -4.316953      2.316617     -0.142764
  C      -5.605371      1.687659     -0.055491
  H      -5.750376      0.979003     -0.879401
  H      -6.330886      2.498077     -0.129806
  H      -5.720697      1.167993      0.902802
