21
* (null), Energy   -1000.0000000
C    -3.202273    1.505277    0.005183   -0.000913    0.000285   -0.079103
C    -3.296402    0.111280   -0.017416   -0.000415   -0.004208    0.202876
C    -2.111492   -0.637378   -0.032772    0.000062   -0.007051    0.374982
C    -0.865385   -0.023859   -0.026041   -0.000151   -0.005411    0.265662
C    -0.765466    1.382746   -0.003140   -0.000538   -0.000522   -0.030577
C    -1.947290    2.127829    0.011918   -0.001119    0.001734   -0.186217
H    -1.894677    3.211225    0.029459   -0.001206    0.005197   -0.400013
H    -4.256023   -0.392743   -0.023311   -0.000093   -0.006279    0.307858
H    -2.176350   -1.722424   -0.050591    0.000704   -0.011034    0.621287
H     0.028080   -0.638479   -0.038941   -0.000244   -0.009737    0.464212
C     0.548625    2.113325    0.005431   -0.001307    0.002600   -0.149486
C     1.732154    1.437516   -0.001406    0.001250    0.011427   -0.607211
H     1.782071    0.355621   -0.012588    0.007853    0.015601   -0.960703
H     2.669292    1.986704    0.005245   -0.001186    0.016559   -0.688235
O     0.474644    3.428999    0.020489   -0.003771   -0.001094    0.186614
Li    0.311854    5.079412    0.047563    0.017548   -0.009648    0.893437
O    -4.284907    2.351740    0.021912   -0.001083    0.003683   -0.259902
C    -5.586733    1.745114    0.015691   -0.000842    0.002025   -0.129302
H    -5.731712    1.143018   -0.888887   -0.010063   -0.174895   -0.010476
H    -6.294975    2.573902    0.028948   -0.001239    0.004216   -0.285183
H    -5.728366    1.117376    0.903252    0.009039    0.175236   -0.005683
21
* Frequency(6)  -12.2132
C    -3.202377    1.505309   -0.003807   -0.000913    0.000285   -0.079103
C    -3.296449    0.110801    0.005640   -0.000415   -0.004208    0.202876
C    -2.111485   -0.638179    0.009843    0.000062   -0.007051    0.374982
C    -0.865402   -0.024474    0.004150   -0.000151   -0.005411    0.265662
C    -0.765527    1.382686   -0.006615   -0.000538   -0.000522   -0.030577
C    -1.947418    2.128026   -0.009244   -0.001119    0.001734   -0.186217
H    -1.894814    3.211815   -0.016001   -0.001206    0.005197   -0.400013
H    -4.256034   -0.393456    0.011676   -0.000093   -0.006279    0.307858
H    -2.176270   -1.723678    0.020015    0.000704   -0.011034    0.621287
H     0.028052   -0.639585    0.013814   -0.000244   -0.009737    0.464212
C     0.548476    2.113620   -0.011557   -0.001307    0.002600   -0.149486
C     1.732296    1.438815   -0.070413    0.001250    0.011427   -0.607211
H     1.782963    0.357394   -0.121767    0.007853    0.015601   -0.960703
H     2.669157    1.988585   -0.072969   -0.001186    0.016559   -0.688235
O     0.474216    3.428875    0.041697   -0.003771   -0.001094    0.186614
Li    0.313848    5.078315    0.149097    0.017548   -0.009648    0.893437
O    -4.285030    2.352159   -0.007624   -0.001083    0.003683   -0.259902
C    -5.586829    1.745344    0.000996   -0.000842    0.002025   -0.129302
H    -5.732856    1.123142   -0.890077   -0.010063   -0.174895   -0.010476
H    -6.295115    2.574382   -0.003461   -0.001239    0.004216   -0.285183
H    -5.727339    1.137291    0.902606    0.009039    0.175236   -0.005683
21
* Frequency(6)  -12.2132
C    -3.202469    1.505338   -0.011822   -0.000913    0.000285   -0.079103
C    -3.296491    0.110375    0.026197   -0.000415   -0.004208    0.202876
C    -2.111479   -0.638894    0.047840    0.000062   -0.007051    0.374982
C    -0.865418   -0.025022    0.031070   -0.000151   -0.005411    0.265662
C    -0.765582    1.382634   -0.009713   -0.000538   -0.000522   -0.030577
C    -1.947531    2.128202   -0.028114   -0.001119    0.001734   -0.186217
H    -1.894936    3.212342   -0.056534   -0.001206    0.005197   -0.400013
H    -4.256043   -0.394092    0.042871   -0.000093   -0.006279    0.307858
H    -2.176198   -1.724796    0.082970    0.000704   -0.011034    0.621287
H     0.028027   -0.640572    0.060853   -0.000244   -0.009737    0.464212
C     0.548344    2.113884   -0.026704   -0.001307    0.002600   -0.149486
C     1.732423    1.439973   -0.131941    0.001250    0.011427   -0.607211
H     1.783759    0.358975   -0.219115    0.007853    0.015601   -0.960703
H     2.669037    1.990263   -0.142707   -0.001186    0.016559   -0.688235
O     0.473834    3.428764    0.060606   -0.003771   -0.001094    0.186614
Li    0.315626    5.077338    0.239629    0.017548   -0.009648    0.893437
O    -4.285140    2.352532   -0.033960   -0.001083    0.003683   -0.259902
C    -5.586914    1.745549   -0.012106   -0.000842    0.002025   -0.129302
H    -5.733875    1.105420   -0.891139   -0.010063   -0.174895   -0.010476
H    -6.295241    2.574809   -0.032359   -0.001239    0.004216   -0.285183
H    -5.726423    1.155047    0.902030    0.009039    0.175236   -0.005683
21
* Frequency(6)  -12.2132
C    -3.202541    1.505360   -0.017995   -0.000913    0.000285   -0.079103
C    -3.296523    0.110047    0.042028   -0.000415   -0.004208    0.202876
C    -2.111474   -0.639444    0.077101    0.000062   -0.007051    0.374982
C    -0.865429   -0.025444    0.051800   -0.000151   -0.005411    0.265662
C    -0.765624    1.382593   -0.012100   -0.000538   -0.000522   -0.030577
C    -1.947618    2.128337   -0.042645   -0.001119    0.001734   -0.186217
H    -1.895031    3.212747   -0.087749   -0.001206    0.005197   -0.400013
H    -4.256050   -0.394582    0.066894   -0.000093   -0.006279    0.307858
H    -2.176143   -1.725657    0.131451    0.000704   -0.011034    0.621287
H     0.028008   -0.641332    0.097077   -0.000244   -0.009737    0.464212
C     0.548242    2.114087   -0.038369   -0.001307    0.002600   -0.149486
C     1.732520    1.440864   -0.179324    0.001250    0.011427   -0.607211
H     1.784372    0.360192   -0.294082    0.007853    0.015601   -0.960703
H     2.668944    1.991555   -0.196413   -0.001186    0.016559   -0.688235
O     0.473539    3.428679    0.075168   -0.003771   -0.001094    0.186614
Li    0.316996    5.076585    0.309347    0.017548   -0.009648    0.893437
O    -4.285224    2.352819   -0.054241   -0.001083    0.003683   -0.259902
C    -5.586980    1.745707   -0.022196   -0.000842    0.002025   -0.129302
H    -5.734660    1.091772   -0.891956   -0.010063   -0.174895   -0.010476
H    -6.295338    2.575138   -0.054613   -0.001239    0.004216   -0.285183
H    -5.725718    1.168722    0.901587    0.009039    0.175236   -0.005683
21
* Frequency(6)  -12.2132
C    -3.202583    1.505373   -0.021656   -0.000913    0.000285   -0.079103
C    -3.296542    0.109852    0.051418   -0.000415   -0.004208    0.202876
C    -2.111472   -0.639770    0.094456    0.000062   -0.007051    0.374982
C    -0.865436   -0.025695    0.064096   -0.000151   -0.005411    0.265662
C    -0.765649    1.382569   -0.013515   -0.000538   -0.000522   -0.030577
C    -1.947670    2.128417   -0.051263   -0.001119    0.001734   -0.186217
H    -1.895086    3.212988   -0.106262   -0.001206    0.005197   -0.400013
H    -4.256055   -0.394873    0.081143   -0.000093   -0.006279    0.307858
H    -2.176111   -1.726167    0.160205    0.000704   -0.011034    0.621287
H     0.027997   -0.641782    0.118562   -0.000244   -0.009737    0.464212
C     0.548181    2.114207   -0.045288   -0.001307    0.002600   -0.149486
C     1.732578    1.441393   -0.207427    0.001250    0.011427   -0.607211
H     1.784735    0.360914   -0.338545    0.007853    0.015601   -0.960703
H     2.668889    1.992322   -0.228266   -0.001186    0.016559   -0.688235
O     0.473365    3.428628    0.083805   -0.003771   -0.001094    0.186614
Li    0.317808    5.076138    0.350697    0.017548   -0.009648    0.893437
O    -4.285274    2.352990   -0.066270   -0.001083    0.003683   -0.259902
C    -5.587019    1.745801   -0.028180   -0.000842    0.002025   -0.129302
H    -5.735126    1.083678   -0.892441   -0.010063   -0.174895   -0.010476
H    -6.295395    2.575333   -0.067812   -0.001239    0.004216   -0.285183
H    -5.725299    1.176832    0.901324    0.009039    0.175236   -0.005683
21
* Frequency(6)  -12.2132
C    -3.202592    1.505376   -0.022408   -0.000913    0.000285   -0.079103
C    -3.296546    0.109812    0.053348   -0.000415   -0.004208    0.202876
C    -2.111471   -0.639837    0.098024    0.000062   -0.007051    0.374982
C    -0.865438   -0.025746    0.066623   -0.000151   -0.005411    0.265662
C    -0.765654    1.382564   -0.013806   -0.000538   -0.000522   -0.030577
C    -1.947681    2.128434   -0.053035   -0.001119    0.001734   -0.186217
H    -1.895098    3.213037   -0.110068   -0.001206    0.005197   -0.400013
H    -4.256055   -0.394933    0.084072   -0.000093   -0.006279    0.307858
H    -2.176104   -1.726272    0.166117    0.000704   -0.011034    0.621287
H     0.027994   -0.641875    0.122978   -0.000244   -0.009737    0.464212
C     0.548169    2.114232   -0.046710   -0.001307    0.002600   -0.149486
C     1.732590    1.441502   -0.213205    0.001250    0.011427   -0.607211
H     1.784810    0.361063   -0.347686    0.007853    0.015601   -0.960703
H     2.668878    1.992479   -0.234814   -0.001186    0.016559   -0.688235
O     0.473329    3.428618    0.085581   -0.003771   -0.001094    0.186614
Li    0.317975    5.076046    0.359198    0.017548   -0.009648    0.893437
O    -4.285284    2.353025   -0.068743   -0.001083    0.003683   -0.259902
C    -5.587027    1.745820   -0.029410   -0.000842    0.002025   -0.129302
H    -5.735222    1.082014   -0.892541   -0.010063   -0.174895   -0.010476
H    -6.295407    2.575373   -0.070525   -0.001239    0.004216   -0.285183
H    -5.725213    1.178499    0.901270    0.009039    0.175236   -0.005683
21
* Frequency(6)  -12.2132
C    -3.202566    1.505368   -0.020171   -0.000913    0.000285   -0.079103
C    -3.296535    0.109931    0.047610   -0.000415   -0.004208    0.202876
C    -2.111473   -0.639638    0.087418    0.000062   -0.007051    0.374982
C    -0.865434   -0.025593    0.059109   -0.000151   -0.005411    0.265662
C    -0.765639    1.382578   -0.012941   -0.000538   -0.000522   -0.030577
C    -1.947649    2.128385   -0.047768   -0.001119    0.001734   -0.186217
H    -1.895064    3.212890   -0.098754   -0.001206    0.005197   -0.400013
H    -4.256053   -0.394755    0.075364   -0.000093   -0.006279    0.307858
H    -2.176124   -1.725960    0.148544    0.000704   -0.011034    0.621287
H     0.028001   -0.641600    0.109849   -0.000244   -0.009737    0.464212
C     0.548206    2.114158   -0.042482   -0.001307    0.002600   -0.149486
C     1.732555    1.441179   -0.196030    0.001250    0.011427   -0.607211
H     1.784588    0.360622   -0.320513    0.007853    0.015601   -0.960703
H     2.668912    1.992011   -0.215348   -0.001186    0.016559   -0.688235
O     0.473436    3.428648    0.080303   -0.003771   -0.001094    0.186614
Li    0.317478    5.076319    0.333928    0.017548   -0.009648    0.893437
O    -4.285254    2.352921   -0.061392   -0.001083    0.003683   -0.259902
C    -5.587003    1.745763   -0.025753   -0.000842    0.002025   -0.129302
H    -5.734937    1.086960   -0.892244   -0.010063   -0.174895   -0.010476
H    -6.295372    2.575254   -0.062459   -0.001239    0.004216   -0.285183
H    -5.725469    1.173543    0.901431    0.009039    0.175236   -0.005683
21
* Frequency(6)  -12.2132
C    -3.202508    1.505350   -0.015186   -0.000913    0.000285   -0.079103
C    -3.296508    0.110196    0.034825   -0.000415   -0.004208    0.202876
C    -2.111477   -0.639194    0.063788    0.000062   -0.007051    0.374982
C    -0.865424   -0.025252    0.042368   -0.000151   -0.005411    0.265662
C    -0.765605    1.382611   -0.011014   -0.000538   -0.000522   -0.030577
C    -1.947579    2.128275   -0.036033   -0.001119    0.001734   -0.186217
H    -1.894988    3.212563   -0.073546   -0.001206    0.005197   -0.400013
H    -4.256047   -0.394360    0.055964   -0.000093   -0.006279    0.307858
H    -2.176168   -1.725265    0.109392    0.000704   -0.011034    0.621287
H     0.028017   -0.640986    0.080595   -0.000244   -0.009737    0.464212
C     0.548288    2.113995   -0.033062   -0.001307    0.002600   -0.149486
C     1.732476    1.440459   -0.157765    0.001250    0.011427   -0.607211
H     1.784093    0.359638   -0.259973    0.007853    0.015601   -0.960703
H     2.668986    1.990968   -0.171977   -0.001186    0.016559   -0.688235
O     0.473673    3.428717    0.068543   -0.003771   -0.001094    0.186614
Li    0.316373    5.076927    0.277626    0.017548   -0.009648    0.893437
O    -4.285186    2.352689   -0.045014   -0.001083    0.003683   -0.259902
C    -5.586950    1.745635   -0.017605   -0.000842    0.002025   -0.129302
H    -5.734303    1.097982   -0.891584   -0.010063   -0.174895   -0.010476
H    -6.295294    2.574988   -0.044487   -0.001239    0.004216   -0.285183
H    -5.726039    1.162500    0.901789    0.009039    0.175236   -0.005683
21
* Frequency(6)  -12.2132
C    -3.202425    1.505324   -0.007994   -0.000913    0.000285   -0.079103
C    -3.296471    0.110579    0.016379   -0.000415   -0.004208    0.202876
C    -2.111482   -0.638553    0.029694    0.000062   -0.007051    0.374982
C    -0.865410   -0.024760    0.018213   -0.000151   -0.005411    0.265662
C    -0.765556    1.382659   -0.008234   -0.000538   -0.000522   -0.030577
C    -1.947477    2.128118   -0.019102   -0.001119    0.001734   -0.186217
H    -1.894878    3.212090   -0.037176   -0.001206    0.005197   -0.400013
H    -4.256039   -0.393789    0.027973   -0.000093   -0.006279    0.307858
H    -2.176232   -1.724262    0.052904    0.000704   -0.011034    0.621287
H     0.028039   -0.640101    0.038388   -0.000244   -0.009737    0.464212
C     0.548407    2.113758   -0.019470   -0.001307    0.002600   -0.149486
C     1.732362    1.439420   -0.102557    0.001250    0.011427   -0.607211
H     1.783379    0.358220   -0.172624    0.007853    0.015601   -0.960703
H     2.669094    1.989462   -0.109402   -0.001186    0.016559   -0.688235
O     0.474016    3.428817    0.051575   -0.003771   -0.001094    0.186614
Li    0.314777    5.077805    0.196393    0.017548   -0.009648    0.893437
O    -4.285087    2.352354   -0.021383   -0.001083    0.003683   -0.259902
C    -5.586874    1.745451   -0.005848   -0.000842    0.002025   -0.129302
H    -5.733388    1.113884   -0.890632   -0.010063   -0.174895   -0.010476
H    -6.295181    2.574605   -0.018558   -0.001239    0.004216   -0.285183
H    -5.726861    1.146567    0.902305    0.009039    0.175236   -0.005683
21
* Frequency(6)  -12.2132
C    -3.202326    1.505293    0.000626   -0.000913    0.000285   -0.079103
C    -3.296425    0.111037   -0.005729   -0.000415   -0.004208    0.202876
C    -2.111489   -0.637784   -0.011170    0.000062   -0.007051    0.374982
C    -0.865394   -0.024170   -0.010737   -0.000151   -0.005411    0.265662
C    -0.765497    1.382716   -0.004902   -0.000538   -0.000522   -0.030577
C    -1.947355    2.127929    0.001191   -0.001119    0.001734   -0.186217
H    -1.894747    3.211524    0.006415   -0.001206    0.005197   -0.400013
H    -4.256028   -0.393104   -0.005575   -0.000093   -0.006279    0.307858
H    -2.176309   -1.723059   -0.014800    0.000704   -0.011034    0.621287
H     0.028066   -0.639040   -0.012199   -0.000244   -0.009737    0.464212
C     0.548549    2.113475   -0.003180   -0.001307    0.002600   -0.149486
C     1.732226    1.438175   -0.036387    0.001250    0.011427   -0.607211
H     1.782523    0.356520   -0.067933    0.007853    0.015601   -0.960703
H     2.669223    1.987658   -0.034402   -0.001186    0.016559   -0.688235
O     0.474427    3.428936    0.031239   -0.003771   -0.001094    0.186614
Li    0.312865    5.078856    0.099032    0.017548   -0.009648    0.893437
O    -4.284969    2.351953    0.006940   -0.001083    0.003683   -0.259902
C    -5.586782    1.745230    0.008242   -0.000842    0.002025   -0.129302
H    -5.732292    1.132942   -0.889490   -0.010063   -0.174895   -0.010476
H    -6.295046    2.574145    0.012519   -0.001239    0.004216   -0.285183
H    -5.727846    1.127471    0.902925    0.009039    0.175236   -0.005683
21
* Frequency(6)  -12.2132
C    -3.202220    1.505260    0.009740   -0.000913    0.000285   -0.079103
C    -3.296378    0.111522   -0.029103   -0.000415   -0.004208    0.202876
C    -2.111496   -0.636972   -0.054374    0.000062   -0.007051    0.374982
C    -0.865377   -0.023547   -0.041345   -0.000151   -0.005411    0.265662
C    -0.765435    1.382776   -0.001379   -0.000538   -0.000522   -0.030577
C    -1.947226    2.127729    0.022646   -0.001119    0.001734   -0.186217
H    -1.894608    3.210925    0.052503   -0.001206    0.005197   -0.400013
H    -4.256018   -0.392381   -0.041046   -0.000093   -0.006279    0.307858
H    -2.176390   -1.721788   -0.086382    0.000704   -0.011034    0.621287
H     0.028094   -0.637918   -0.065683   -0.000244   -0.009737    0.464212
C     0.548700    2.113175    0.014043   -0.001307    0.002600   -0.149486
C     1.732082    1.436858    0.033574    0.001250    0.011427   -0.607211
H     1.781618    0.354722    0.042756    0.007853    0.015601   -0.960703
H     2.669360    1.985750    0.044893   -0.001186    0.016559   -0.688235
O     0.474861    3.429062    0.009738   -0.003771   -0.001094    0.186614
Li    0.310843    5.079968   -0.003906    0.017548   -0.009648    0.893437
O    -4.284844    2.351528    0.036885   -0.001083    0.003683   -0.259902
C    -5.586685    1.744997    0.023140   -0.000842    0.002025   -0.129302
H    -5.731132    1.153093   -0.888283   -0.010063   -0.174895   -0.010476
H    -6.294903    2.573659    0.045377   -0.001239    0.004216   -0.285183
H    -5.728887    1.107281    0.903579    0.009039    0.175236   -0.005683
21
* Frequency(6)  -12.2132
C    -3.202121    1.505229    0.018360   -0.000913    0.000285   -0.079103
C    -3.296332    0.111981   -0.051212   -0.000415   -0.004208    0.202876
C    -2.111503   -0.636204   -0.095237    0.000062   -0.007051    0.374982
C    -0.865360   -0.022957   -0.070295   -0.000151   -0.005411    0.265662
C    -0.765376    1.382833    0.001953   -0.000538   -0.000522   -0.030577
C    -1.947104    2.127540    0.042938   -0.001119    0.001734   -0.186217
H    -1.894476    3.210359    0.096093   -0.001206    0.005197   -0.400013
H    -4.256008   -0.391697   -0.074594   -0.000093   -0.006279    0.307858
H    -2.176467   -1.720586   -0.154086    0.000704   -0.011034    0.621287
H     0.028120   -0.636857   -0.116270   -0.000244   -0.009737    0.464212
C     0.548842    2.112892    0.030333   -0.001307    0.002600   -0.149486
C     1.731946    1.435613    0.099744    0.001250    0.011427   -0.607211
H     1.780763    0.353022    0.147447    0.007853    0.015601   -0.960703
H     2.669489    1.983945    0.119893   -0.001186    0.016559   -0.688235
O     0.475272    3.429181   -0.010598   -0.003771   -0.001094    0.186614
Li    0.308931    5.081019   -0.101267    0.017548   -0.009648    0.893437
O    -4.284726    2.351127    0.065207   -0.001083    0.003683   -0.259902
C    -5.586593    1.744776    0.037230   -0.000842    0.002025   -0.129302
H    -5.730036    1.172152   -0.887141   -0.010063   -0.174895   -0.010476
H    -6.294768    2.573200    0.076455   -0.001239    0.004216   -0.285183
H    -5.729872    1.088185    0.904199    0.009039    0.175236   -0.005683
21
* Frequency(6)  -12.2132
C    -3.202038    1.505203    0.025552   -0.000913    0.000285   -0.079103
C    -3.296295    0.112363   -0.069657   -0.000415   -0.004208    0.202876
C    -2.111508   -0.635563   -0.129331    0.000062   -0.007051    0.374982
C    -0.865346   -0.022465   -0.094450   -0.000151   -0.005411    0.265662
C    -0.765328    1.382880    0.004733   -0.000538   -0.000522   -0.030577
C    -1.947002    2.127383    0.059870   -0.001119    0.001734   -0.186217
H    -1.894367    3.209886    0.132463   -0.001206    0.005197   -0.400013
H    -4.255999   -0.391126   -0.102585   -0.000093   -0.006279    0.307858
H    -2.176531   -1.719582   -0.210575    0.000704   -0.011034    0.621287
H     0.028143   -0.635971   -0.158477   -0.000244   -0.009737    0.464212
C     0.548961    2.112655    0.043925   -0.001307    0.002600   -0.149486
C     1.731832    1.434574    0.154953    0.001250    0.011427   -0.607211
H     1.780049    0.351604    0.234796    0.007853    0.015601   -0.960703
H     2.669597    1.982440    0.182468   -0.001186    0.016559   -0.688235
O     0.475615    3.429281   -0.027565   -0.003771   -0.001094    0.186614
Li    0.307335    5.081896   -0.182500    0.017548   -0.009648    0.893437
O    -4.284628    2.350792    0.088838   -0.001083    0.003683   -0.259902
C    -5.586516    1.744592    0.048987   -0.000842    0.002025   -0.129302
H    -5.729121    1.188054   -0.886189   -0.010063   -0.174895   -0.010476
H    -6.294656    2.572817    0.102384   -0.001239    0.004216   -0.285183
H    -5.730694    1.072252    0.904715    0.009039    0.175236   -0.005683
21
* Frequency(6)  -12.2132
C    -3.201980    1.505185    0.030537   -0.000913    0.000285   -0.079103
C    -3.296268    0.112628   -0.082442   -0.000415   -0.004208    0.202876
C    -2.111512   -0.635118   -0.152961    0.000062   -0.007051    0.374982
C    -0.865337   -0.022124   -0.111191   -0.000151   -0.005411    0.265662
C    -0.765294    1.382913    0.006660   -0.000538   -0.000522   -0.030577
C    -1.946932    2.127273    0.071604   -0.001119    0.001734   -0.186217
H    -1.894291    3.209559    0.157671   -0.001206    0.005197   -0.400013
H    -4.255993   -0.390730   -0.121985   -0.000093   -0.006279    0.307858
H    -2.176575   -1.718887   -0.249727    0.000704   -0.011034    0.621287
H     0.028158   -0.635358   -0.187730   -0.000244   -0.009737    0.464212
C     0.549043    2.112491    0.053345   -0.001307    0.002600   -0.149486
C     1.731753    1.433854    0.193217    0.001250    0.011427   -0.607211
H     1.779554    0.350621    0.295337    0.007853    0.015601   -0.960703
H     2.669672    1.981396    0.225839   -0.001186    0.016559   -0.688235
O     0.475853    3.429350   -0.039325   -0.003771   -0.001094    0.186614
Li    0.306230    5.082504   -0.238802    0.017548   -0.009648    0.893437
O    -4.284560    2.350560    0.105216   -0.001083    0.003683   -0.259902
C    -5.586463    1.744465    0.057135   -0.000842    0.002025   -0.129302
H    -5.728486    1.199075   -0.885529   -0.010063   -0.174895   -0.010476
H    -6.294577    2.572551    0.120355   -0.001239    0.004216   -0.285183
H    -5.731264    1.061209    0.905074    0.009039    0.175236   -0.005683
21
* Frequency(6)  -12.2132
C    -3.201955    1.505177    0.032774   -0.000913    0.000285   -0.079103
C    -3.296257    0.112747   -0.088180   -0.000415   -0.004208    0.202876
C    -2.111514   -0.634919   -0.163567    0.000062   -0.007051    0.374982
C    -0.865333   -0.021971   -0.118705   -0.000151   -0.005411    0.265662
C    -0.765278    1.382928    0.007525   -0.000538   -0.000522   -0.030577
C    -1.946900    2.127224    0.076871   -0.001119    0.001734   -0.186217
H    -1.894257    3.209412    0.168985   -0.001206    0.005197   -0.400013
H    -4.255991   -0.390552   -0.130693   -0.000093   -0.006279    0.307858
H    -2.176595   -1.718575   -0.267299    0.000704   -0.011034    0.621287
H     0.028165   -0.635082   -0.200860   -0.000244   -0.009737    0.464212
C     0.549080    2.112418    0.057573   -0.001307    0.002600   -0.149486
C     1.731718    1.433531    0.210392    0.001250    0.011427   -0.607211
H     1.779332    0.350179    0.322509    0.007853    0.015601   -0.960703
H     2.669705    1.980928    0.245305   -0.001186    0.016559   -0.688235
O     0.475960    3.429380   -0.044603   -0.003771   -0.001094    0.186614
Li    0.305733    5.082777   -0.264072    0.017548   -0.009648    0.893437
O    -4.284529    2.350456    0.112567   -0.001083    0.003683   -0.259902
C    -5.586439    1.744407    0.060792   -0.000842    0.002025   -0.129302
H    -5.728202    1.204022   -0.885232   -0.010063   -0.174895   -0.010476
H    -6.294542    2.572432    0.128422   -0.001239    0.004216   -0.285183
H    -5.731519    1.056253    0.905234    0.009039    0.175236   -0.005683
21
* Frequency(6)  -12.2132
C    -3.201963    1.505180    0.032022   -0.000913    0.000285   -0.079103
C    -3.296261    0.112707   -0.086250   -0.000415   -0.004208    0.202876
C    -2.111513   -0.634986   -0.159999    0.000062   -0.007051    0.374982
C    -0.865334   -0.022023   -0.116178   -0.000151   -0.005411    0.265662
C    -0.765284    1.382923    0.007234   -0.000538   -0.000522   -0.030577
C    -1.946911    2.127241    0.075100   -0.001119    0.001734   -0.186217
H    -1.894268    3.209461    0.165179   -0.001206    0.005197   -0.400013
H    -4.255991   -0.390612   -0.127764   -0.000093   -0.006279    0.307858
H    -2.176588   -1.718680   -0.261388    0.000704   -0.011034    0.621287
H     0.028163   -0.635175   -0.196443   -0.000244   -0.009737    0.464212
C     0.549068    2.112443    0.056151   -0.001307    0.002600   -0.149486
C     1.731730    1.433639    0.204614    0.001250    0.011427   -0.607211
H     1.779406    0.350328    0.313369    0.007853    0.015601   -0.960703
H     2.669694    1.981086    0.238757   -0.001186    0.016559   -0.688235
O     0.475924    3.429370   -0.042828   -0.003771   -0.001094    0.186614
Li    0.305900    5.082685   -0.255572    0.017548   -0.009648    0.893437
O    -4.284539    2.350491    0.110094   -0.001083    0.003683   -0.259902
C    -5.586447    1.744427    0.059562   -0.000842    0.002025   -0.129302
H    -5.728298    1.202358   -0.885332   -0.010063   -0.174895   -0.010476
H    -6.294554    2.572472    0.125708   -0.001239    0.004216   -0.285183
H    -5.731433    1.057920    0.905180    0.009039    0.175236   -0.005683
21
* Frequency(6)  -12.2132
C    -3.202006    1.505193    0.028361   -0.000913    0.000285   -0.079103
C    -3.296280    0.112513   -0.076861   -0.000415   -0.004208    0.202876
C    -2.111511   -0.635312   -0.142644    0.000062   -0.007051    0.374982
C    -0.865341   -0.022273   -0.103882   -0.000151   -0.005411    0.265662
C    -0.765308    1.382899    0.005819   -0.000538   -0.000522   -0.030577
C    -1.946963    2.127321    0.066481   -0.001119    0.001734   -0.186217
H    -1.894324    3.209702    0.146666   -0.001206    0.005197   -0.400013
H    -4.255996   -0.390903   -0.113515   -0.000093   -0.006279    0.307858
H    -2.176556   -1.719191   -0.232634    0.000704   -0.011034    0.621287
H     0.028151   -0.635626   -0.174959   -0.000244   -0.009737    0.464212
C     0.549007    2.112563    0.049232   -0.001307    0.002600   -0.149486
C     1.731788    1.434168    0.176512    0.001250    0.011427   -0.607211
H     1.779770    0.351050    0.268906    0.007853    0.015601   -0.960703
H     2.669639    1.981852    0.206904   -0.001186    0.016559   -0.688235
O     0.475749    3.429319   -0.034191   -0.003771   -0.001094    0.186614
Li    0.306712    5.082239   -0.214222    0.017548   -0.009648    0.893437
O    -4.284589    2.350661    0.098065   -0.001083    0.003683   -0.259902
C    -5.586486    1.744520    0.053578   -0.000842    0.002025   -0.129302
H    -5.728763    1.194263   -0.885817   -0.010063   -0.174895   -0.010476
H    -6.294612    2.572667    0.112509   -0.001239    0.004216   -0.285183
H    -5.731015    1.066031    0.904917    0.009039    0.175236   -0.005683
21
* Frequency(6)  -12.2132
C    -3.202077    1.505215    0.022188   -0.000913    0.000285   -0.079103
C    -3.296312    0.112184   -0.061029   -0.000415   -0.004208    0.202876
C    -2.111506   -0.635862   -0.113383    0.000062   -0.007051    0.374982
C    -0.865353   -0.022695   -0.083152   -0.000151   -0.005411    0.265662
C    -0.765350    1.382858    0.003433   -0.000538   -0.000522   -0.030577
C    -1.947050    2.127456    0.051950   -0.001119    0.001734   -0.186217
H    -1.894418    3.210107    0.115451   -0.001206    0.005197   -0.400013
H    -4.256003   -0.391393   -0.089492   -0.000093   -0.006279    0.307858
H    -2.176501   -1.720052   -0.184152    0.000704   -0.011034    0.621287
H     0.028132   -0.636385   -0.138735   -0.000244   -0.009737    0.464212
C     0.548905    2.112766    0.037567   -0.001307    0.002600   -0.149486
C     1.731885    1.435060    0.129129    0.001250    0.011427   -0.607211
H     1.780383    0.352267    0.193938    0.007853    0.015601   -0.960703
H     2.669546    1.983144    0.153198   -0.001186    0.016559   -0.688235
O     0.475455    3.429234   -0.019628   -0.003771   -0.001094    0.186614
Li    0.308082    5.081486   -0.144503    0.017548   -0.009648    0.893437
O    -4.284674    2.350949    0.077784   -0.001083    0.003683   -0.259902
C    -5.586552    1.744678    0.043488   -0.000842    0.002025   -0.129302
H    -5.729549    1.180616   -0.886634   -0.010063   -0.174895   -0.010476
H    -6.294708    2.572996    0.090255   -0.001239    0.004216   -0.285183
H    -5.730310    1.079705    0.904474    0.009039    0.175236   -0.005683
21
* Frequency(6)  -12.2132
C    -3.202169    1.505244    0.014172   -0.000913    0.000285   -0.079103
C    -3.296354    0.111758   -0.040472   -0.000415   -0.004208    0.202876
C    -2.111499   -0.636577   -0.075386    0.000062   -0.007051    0.374982
C    -0.865368   -0.023244   -0.056232   -0.000151   -0.005411    0.265662
C    -0.765405    1.382805    0.000335   -0.000538   -0.000522   -0.030577
C    -1.947163    2.127632    0.033081   -0.001119    0.001734   -0.186217
H    -1.894540    3.210634    0.074918   -0.001206    0.005197   -0.400013
H    -4.256012   -0.392029   -0.058297   -0.000093   -0.006279    0.307858
H    -2.176430   -1.721170   -0.121197    0.000704   -0.011034    0.621287
H     0.028107   -0.637372   -0.091696   -0.000244   -0.009737    0.464212
C     0.548773    2.113029    0.022420   -0.001307    0.002600   -0.149486
C     1.732012    1.436218    0.067600    0.001250    0.011427   -0.607211
H     1.781178    0.353848    0.096591    0.007853    0.015601   -0.960703
H     2.669426    1.984822    0.083460   -0.001186    0.016559   -0.688235
O     0.475073    3.429123   -0.000719   -0.003771   -0.001094    0.186614
Li    0.309860    5.080508   -0.053972    0.017548   -0.009648    0.893437
O    -4.284784    2.351322    0.051449   -0.001083    0.003683   -0.259902
C    -5.586638    1.744884    0.030385   -0.000842    0.002025   -0.129302
H    -5.730568    1.162894   -0.887696   -0.010063   -0.174895   -0.010476
H    -6.294834    2.573423    0.061358   -0.001239    0.004216   -0.285183
H    -5.729394    1.097461    0.903898    0.009039    0.175236   -0.005683
21
* Frequency(6)  -12.2132
C    -3.202273    1.505277    0.005183   -0.000913    0.000285   -0.079103
C    -3.296402    0.111280   -0.017416   -0.000415   -0.004208    0.202876
C    -2.111492   -0.637378   -0.032772    0.000062   -0.007051    0.374982
C    -0.865385   -0.023859   -0.026041   -0.000151   -0.005411    0.265662
C    -0.765466    1.382746   -0.003140   -0.000538   -0.000522   -0.030577
C    -1.947290    2.127829    0.011918   -0.001119    0.001734   -0.186217
H    -1.894677    3.211225    0.029459   -0.001206    0.005197   -0.400013
H    -4.256023   -0.392743   -0.023311   -0.000093   -0.006279    0.307858
H    -2.176350   -1.722424   -0.050591    0.000704   -0.011034    0.621287
H     0.028080   -0.638479   -0.038941   -0.000244   -0.009737    0.464212
C     0.548625    2.113325    0.005431   -0.001307    0.002600   -0.149486
C     1.732154    1.437516   -0.001406    0.001250    0.011427   -0.607211
H     1.782071    0.355621   -0.012588    0.007853    0.015601   -0.960703
H     2.669292    1.986704    0.005245   -0.001186    0.016559   -0.688235
O     0.474644    3.428999    0.020489   -0.003771   -0.001094    0.186614
Li    0.311854    5.079412    0.047563    0.017548   -0.009648    0.893437
O    -4.284907    2.351740    0.021912   -0.001083    0.003683   -0.259902
C    -5.586733    1.745114    0.015691   -0.000842    0.002025   -0.129302
H    -5.731712    1.143018   -0.888887   -0.010063   -0.174895   -0.010476
H    -6.294975    2.573902    0.028948   -0.001239    0.004216   -0.285183
H    -5.728366    1.117376    0.903252    0.009039    0.175236   -0.005683
