3
Coordinates from ORCA-job H2O_freqopt E -76.472811618007
  O      -2.107304     -9.010672     -2.233555
  H      -1.137304     -9.010672     -2.233555
  H      -2.430634     -8.266093     -2.764555
3
Coordinates from ORCA-job H2O_freqopt E -76.473305665517
  O      -2.113576     -9.017917     -2.228388
  H      -1.145985     -9.000252     -2.240986
  H      -2.415682     -8.269267     -2.762292
3
Coordinates from ORCA-job H2O_freqopt E -76.473508709092
  O      -2.122009     -9.027634     -2.221458
  H      -1.152984     -8.988938     -2.249054
  H      -2.400250     -8.270864     -2.761153
3
Coordinates from ORCA-job H2O_freqopt E -76.473509502249
  O      -2.121909     -9.027514     -2.221544
  H      -1.152350     -8.989390     -2.248732
  H      -2.400983     -8.270532     -2.761390
3
Coordinates from ORCA-job H2O_freqopt E -76.473509507401
  O      -2.121926     -9.027533     -2.221530
  H      -1.152313     -8.989398     -2.248727
  H      -2.401004     -8.270506     -2.761408
