21
 energy: -32.480006081971 gnorm: 0.000716419408 xtb: 6.4.1 (afa7bdf)
C        -2.91080564055299   -0.04778620315128    0.22289217444191
C        -2.87031749902024   -1.43915857592650    0.22004925807772
C        -1.64635891418826   -2.09116883638061    0.21748060258631
C        -0.45914495371701   -1.38767720960777    0.21800816174580
C        -0.48658242985301    0.00863646045207    0.22128059912244
C        -1.71245073588201    0.66250182209066    0.22346070892279
H        -1.73734981649373    1.74122290545333    0.22579516023065
H        -3.77692170480557   -2.02351373377395    0.21968332651940
H        -1.62928180203763   -3.17150045422719    0.21502923975730
H         0.47480333575072   -1.92553016274946    0.21551816650811
C         0.73941615219600    0.85129538553489    0.22257625764124
C         2.06638505091861    0.13065413534171    0.22647840764639
H         2.14517923361168   -0.50322578743595    1.10677335574340
H         2.87071097961000    0.86166989916221    0.23572102986430
H         2.15528454291910   -0.49070488300505   -0.66200368963644
O         0.67682813087411    2.06002866121782    0.21928609965912
O        -4.04513803576070    0.69925292352178    0.22513108471276
C        -5.28895088354745    0.04187411372702    0.22339476073614
H        -6.03843554498005    0.83128601980043    0.22459724070307
H        -5.41794942488240   -0.57920920007046    1.11600044025133
H        -5.41721713115917   -0.57579724857369   -0.67167788683373
