! TPSS D3BJ def2-TZVP RI def2/J CPCM(THF)
! Opt numfreq Pal4

* xyz 0 1
C        -2.56950946745473    2.30847948692777    0.09650459902578
C        -2.75432902054190    1.02802744745973    0.61222848588927
C        -1.67166046420603    0.16827239399531    0.72446229644111
C        -0.40370599515443    0.55546816308320    0.33982429061819
C        -0.20451800887304    1.83871852984074   -0.17736338729944
C        -1.29100028268401    2.69996111307643   -0.29535332699296
O        -3.54852378102489    3.23525515305943   -0.06469544161984
C        -4.86951830253424    2.90783979001898    0.32066987120590
H        -5.24978720491233    2.05408770446962   -0.24714764458150
H        -5.46330135395595    3.79023372324971    0.09018733058592
H        -4.92920589707969    2.69698315512801    1.39226971155921
C         1.11413018450754    2.33945447477920   -0.62586977303482
H        -1.14462123635616    3.69116617273048   -0.69593252185428
H        -3.72880838186813    0.69025087542871    0.92582801933915
H        -1.82996935829163   -0.82283516647191    1.12174487804491
H         0.41432462853031   -0.13837739495433    0.43474572070878
O         1.23120101032430    3.42698554718701   -1.16411502341866
C         2.31399716267631    1.44499400603729   -0.40282278567365
C         3.63768627971091    2.15957054348869   -0.75686052045143
O         3.70146979141442    2.48062687490819   -2.12562529503986
C         4.79441433909253    1.25838309638769   -0.39601079230870
H         3.69914493521348    3.08050954296375   -0.15322835951867
C         5.36054500004861    0.42422672829210   -1.35282844230504
H         2.98405703709486    3.10513824491430   -2.31022653894744
C         5.28421452645337    1.23446320654529    0.90626020328051
C         6.40207507380045   -0.42057312480704   -1.02195453763818
C         6.88957460846634   -0.44580194122561    0.28333891268444
C         6.32221343196811    0.39081176409256    1.24487846718056
H         4.85498400391268    1.88549781036143    1.65367293041343
H         4.98428718745631    0.46038854945292   -2.36281945872107
H         6.84278024547489   -1.06256676453447   -1.76777144640562
H         6.71474488124501    0.36515394591104    2.25041894296492
C         8.00137991107241   -1.33257446610321    0.68567569310060
O         8.41667086613494   -2.13099428500058   -0.30435142820526
C         9.48419208380083   -3.02605371568155   -0.00254582250919
H         9.21938759185036   -3.65415823194956    0.85078393477810
H        10.38958686205388   -2.46507759999059    0.23876964175513
H         9.62782230852433   -3.62657070253715   -0.89680167848015
O         8.49437202818048   -1.35313449066876    1.79543563495385
H         2.21032856015990    0.56454017144004   -1.04148017050655
H         2.34328990606947    1.11863670829497    0.63655479188183
*
