59
 energy: -95.313648511730 gnorm: 0.000452086603 xtb: 6.4.1 (afa7bdf)
C        -3.01665861866714    2.75090911732072   -0.30642256302392
C        -3.20139339914560    1.59390870867965    0.44549936950933
C        -2.10926769228938    0.80300530909794    0.76976186995446
C        -0.83255317327807    1.14637524576627    0.37236217185158
C        -0.63433039027110    2.30626005096903   -0.38040610170418
C        -1.72962588500799    3.09210004679698   -0.71845366520098
H        -1.58276391985258    3.98706819235658   -1.30311169715210
H        -4.18291856029692    1.29859516359829    0.77928502120997
H        -2.26690876535441   -0.09636644608630    1.34572735012671
H        -0.00468774477975    0.50700502777496    0.62957273581758
C         0.70350317311969    2.74521402418227   -0.85452439020622
C         1.90167330118815    2.14938634574164   -0.15296258332500
O         0.81884699903879    3.54371943299679   -1.76496712952174
C         3.19291385588237    2.91056556402381   -0.46894783992572
H         2.01640060080725    1.12162287624822   -0.50703203713932
H         1.72390806409336    2.10822734057642    0.92122360974006
C         4.37488205099963    2.27402466049428    0.21471421497500
C         3.15926810577345    4.36327963374167   -0.07124855531246
H         3.36693874939251    2.86093081181657   -1.55208341382237
C         2.43030010005395    4.83910702972321    1.01597037497015
C         2.48230873915624    6.17143893377397    1.37252127117014
O        -4.00743998676713    3.60012795817800   -0.68793009555338
C        -5.33776806278988    3.30961402550055   -0.30718412272679
H        -5.67101090882356    2.35478311999189   -0.72424118133696
H        -5.93899271825114    4.11648520738628   -0.72188568325935
H        -5.44628594457244    3.29625542973002    0.78128243544719
C         3.27413987574540    7.06706825453248    0.65547124245001
C         4.01540230369638    6.59745635993297   -0.42999242447522
C         3.95036886061138    5.26642936866780   -0.78022273689808
H         4.52769419201516    4.89887210765354   -1.62123383889458
H         4.63014716490229    7.28450851703563   -0.98953887223244
H         1.80759000395490    4.17396670406117    1.59296212971981
H         1.91241626537118    6.54282914188538    2.21140199188470
C         3.30465595238972    8.48024000728495    1.06997547836236
O         4.10378315442364    9.23546785885198    0.30255515161773
O         2.68201356970752    8.93857031944338    2.00756410545006
C         4.19416716261442   10.61647048910653    0.64023316556601
H         3.21445028136236   11.09060256642276    0.55339221311034
H         4.89747234037558   11.04822872008344   -0.06645829207704
H         4.55170875444238   10.73154901598179    1.66549305346432
C         5.52805441512846    1.98234618406067   -0.41605010325282
C         6.64763453642079    1.35433004469136    0.33085066605717
O         5.74242554781394    2.23357525731350   -1.69738452016925
H         4.28259503668556    2.10376456093281    1.27447018049052
C         6.42667443041007    0.43427050247823    1.35640689330856
C         7.95423530204850    1.67291624595663   -0.00787778321059
C         9.03546328087830    1.10745332118328    0.66350750281843
H         8.14639624135725    2.38263302875588   -0.80036546693127
C         7.49664015102206   -0.12914055299328    2.02109474537462
C         8.80285292092534    0.19905790604695    1.68922904751361
H         9.61672082138614   -0.25872136694444    2.22841718173000
H         5.41918190195315    0.15234594115717    1.61727351808882
H         7.32160600958387   -0.84356977041053    2.81232796396010
O        10.27181211726542    1.50993403181266    0.23943705944335
C        11.41190026380661    0.99001408574371    0.89095732631792
H        11.42061768543843    1.25646721580944    1.95230515197577
H        12.26454343353413    1.44992778354618    0.39421914974154
H        11.47118800961592   -0.09753169231904    0.78507038758605
Li        5.85634760896335    2.64168579395084   -3.22598989025076
