21
 energy: -32.301377521397 gnorm: 0.000680546548 xtb: 6.4.1 (afa7bdf)
C        -2.69567634634206    1.41897523081955   -0.05984102051493
C        -2.89414867121397    0.05050949267176    0.07611587562425
C        -1.79386091403176   -0.78421216308561    0.20788436854003
C        -0.50928594276036   -0.28053538699702    0.20440527589661
C        -0.29713582934760    1.09147692659901    0.06205795990778
C        -1.39802539170615    1.92467434378225   -0.06459996895639
H        -1.25534148987242    2.99070426696624   -0.18283618998207
H        -3.88489546979330   -0.37505352044288    0.08466396708163
H        -1.95381743605293   -1.84666081202244    0.32076901592965
H         0.33275457821490   -0.94326523689147    0.32654873290731
O        -3.69234447860876    2.34683363161921   -0.19232861416834
C        -5.03324394598759    1.90323694008098   -0.18343513678651
H        -5.23374097668982    1.22148199993325   -1.01536512674912
H        -5.63614041621340    2.80238366834809   -0.29782163156879
H        -5.28405144222628    1.41269370239718    0.76203722443230
C         1.06965738290206    1.67430745368056    0.06080432627813
C         2.09522495283738    1.00992445093128   -0.48647209486190
H         3.08420214491062    1.43660533635746   -0.49994099624516
Li        1.30340292145328    4.32537152704249    1.22454547141414
H         1.96146573052738    0.05436349451452   -0.95668762262677
O         1.19790878350139    2.87643355129486    0.60949634714811
