! PW6B95 D3BJ def2-QZVP RIJK def2/JK tightSCF CPCM(THF)
! sp Pal8

* xyz 0 1  
C   -4.00703908942669      2.98959946358312     -0.38459550498393
  C   -3.84151355148400      1.70370753564122     -0.92066225686100
  C   -2.81314476662004      0.88652829928282     -0.44376920923899
  C   -1.94342431596653      1.33352609606963      0.54559501236399
  C   -2.11446093664613      2.62039448473880      1.08546838691802
  C   -3.14805234750211      3.43852598979951      0.62189055448849
  O   -4.97340998328946      3.86959248929326     -0.78445244332913
  C   -5.86444826436729      3.44220682388354     -1.83078707557476
  H   -5.30640304174476      3.22322098138493     -2.74807605360848
  H   -6.53931659031157      4.28188178865780     -1.99504978622229
  H   -6.43271004405669      2.55850712410195     -1.51958567441967
  C   -1.21005565473249      3.16374015208010      2.14108635971649
  C   0.15453488680885      2.52723290239889      2.33113163117573
  C   1.05704173604713      2.68614111915292      1.07350262986448
  H   0.05025120913164      1.45774089896944      2.54964963203045
  H   0.62184619045417      3.01114851060505      3.19316707736927
  H   -3.27460535806305      4.43359126650306      1.03641693527299
  H   -4.49889115437493      1.33554064967513     -1.69994441154997
  H   -2.69569418589232     -0.11005856190358     -0.85945700360222
  H   -1.15368690506671      0.68256174476640      0.90420038904117
  C   1.06112389843160      4.12490859163126      0.59303509450474
  O   -1.54165976910885      4.13960856624557      2.81362861097783
  C   2.46250526314452      2.16463756875441      1.39739899665407
  H   0.64163041995065      2.07524528661284      0.26798869200108
  C   3.34999047205592      2.03030390036687      0.16988085301211
  H   2.39155638507327      1.17045089155403      1.86164823529169
  H   2.95185101161798      2.80560530811556      2.13872302070754
  C   1.65430828626589      5.14554542677757      1.34860049720966
  C   0.41774767742045      4.46341677750139     -0.60424092363662
  C   0.36917916821292      5.78252692503126     -1.04005634384806
  C   0.96730719891426      6.79769347161033     -0.28158325356651
  C   1.61252784947295      6.46802356702018      0.91977851171162
  C   0.89010928862113      8.19187650998476     -0.78461007167458
  O   0.34232381353206      8.52725902822666     -1.82607290732484
  O   1.49842797385070      9.07565127340380      0.04104185317906
  C   1.45538318170872     10.45937791832496     -0.39625201854632
  H   1.97616893731397     11.01666160933440      0.38105559104061
  H   0.41794455678570     10.78854485240329     -0.48678482872709
  H   1.96307743524687     10.56096616325051     -1.35797736503834
  C   4.80411561472286      1.75381636498915      0.37468408278116
  O   2.87967744935223      2.12743936537305     -0.96187151635845
  C   5.35504538949384      1.55584759513001      1.65332079742018
  C   5.62615481885125      1.68684669349002     -0.75427109544107
  C   6.71544559729276      1.29320428395090      1.77834897514500
  C   7.54359137655334      1.22983918108885      0.65458130089234
  C   6.99281282336031      1.42875023764570     -0.62032665974711
  H   5.19837328007928      1.83933573927180     -1.74000639721206
  H   4.73248837375498      1.59913306777880      2.53981140509764
  H   7.14854573572996      1.13559637026399      2.76195173180431
  H   8.60133290871251      1.02844365229797      0.77966224040864
  O   7.71183023755837      1.38895748616584     -1.78198761334934
  C   9.12453134155479      1.13433772117688     -1.67673504824581
  H   9.61522506844454      1.91485040552843     -1.08461445015077
  H   9.49728695315826      1.15182506412916     -2.70058972256501
  H   9.30923573514458      0.15247915558060     -1.22653572310550
  H   -0.04551571067249      3.67915486133161     -1.19631852808313
  H   -0.12840125078327      6.04154816981490     -1.96924896242298
  H   2.14880768749708      4.90893780117787      2.28701351694601
  H   2.07524568878691      7.24722338898047      1.51523023340762
*
