39
Coordinates from ORCA-job Aldol_Cry E -1072.335711464469
  C      -3.732412      1.361715     -0.078537
  C      -3.925824     -0.018032     -0.039056
  C      -2.819725     -0.865375      0.025082
  C      -1.542094     -0.348089      0.059992
  C      -1.339546      1.033769      0.025902
  C      -2.453049      1.876534     -0.048740
  H      -2.295968      2.943231     -0.077376
  H      -4.585360      2.019040     -0.130116
  H      -2.988061     -1.931119      0.056922
  H      -0.707158     -1.024311      0.136897
  C      -0.001015      1.641586      0.103419
  C       1.158637      0.929518     -0.048567
  O       0.001318      2.943353      0.350143
  C       2.446482      1.550767      0.107667
  C       3.670974      0.714655      0.042660
  H       1.112586     -0.112570     -0.294335
  H       0.955599      3.245142      0.389118
  O       2.555146      2.775660      0.309842
  C       3.664336     -0.676698      0.092737
  C       4.890294      1.392968     -0.033829
  C       6.089134      0.697141     -0.064283
  C       6.066033     -0.700024     -0.022942
  H       4.859453      2.471026     -0.062838
  C       4.862850     -1.370567      0.058382
  H       7.004726     -1.230268     -0.047988
  H       4.857386     -2.448969      0.099349
  H       2.744031     -1.228744      0.181858
  C      -5.277887     -0.622987     -0.043160
  O      -5.488181     -1.817652     -0.022568
  O      -6.255394      0.286447     -0.064258
  C      -7.592106     -0.209556     -0.052425
  H      -7.768203     -0.838838     -0.926821
  H      -8.233915      0.666924     -0.069692
  H      -7.765474     -0.801129      0.848586
  O       7.321016      1.269357     -0.131957
  C       7.415281      2.679716     -0.152686
  H       8.481040      2.897220     -0.191212
  H       6.983348      3.120218      0.750564
  H       6.923734      3.098211     -1.035734
39
Coordinates from ORCA-job Aldol_Cry E -1072.339478487076
  C      -3.738799      1.372200     -0.052142
  C      -3.947754     -0.012213     -0.008057
  C      -2.847120     -0.872494      0.095567
  C      -1.560125     -0.363738      0.159123
  C      -1.342074      1.022046      0.117558
  C      -2.449618      1.880351      0.010578
  H      -2.282981      2.950765     -0.027445
  H      -4.587128      2.041584     -0.136468
  H      -3.023520     -1.942351      0.131517
  H      -0.726622     -1.050611      0.258448
  C       0.011929      1.601045      0.196721
  C       1.169080      0.875197      0.060389
  O       0.054726      2.913659      0.409654
  C       2.450804      1.518995      0.189974
  C       3.695911      0.704338      0.089488
  H       1.120237     -0.179975     -0.163251
  H       1.034725      3.156425      0.425307
  O       2.535940      2.761335      0.376857
  C       3.700892     -0.694574      0.125963
  C       4.910777      1.399942     -0.025242
  C       6.115778      0.707259     -0.106478
  C       6.111589     -0.696651     -0.070031
  H       4.873156      2.483156     -0.048804
  C       4.911325     -1.382437      0.048887
  H       7.059591     -1.222661     -0.134304
  H       4.917009     -2.467821      0.082414
  H       2.780026     -1.256689      0.235144
  C      -5.308294     -0.611306     -0.058017
  O      -5.530221     -1.812465     -0.041742
  O      -6.280453      0.314987     -0.131548
  C      -7.631326     -0.181096     -0.181629
  H      -7.770091     -0.813039     -1.063056
  H      -8.266575      0.701605     -0.234543
  H      -7.852512     -0.765411      0.715740
  O       7.337311      1.299970     -0.225074
  C       7.386796      2.726445     -0.249517
  H       8.443330      2.982877     -0.334815
  H       6.976955      3.153157      0.674083
  H       6.839360      3.127466     -1.111252
39
Coordinates from ORCA-job Aldol_Cry E -1072.340142304916
  C      -3.744795      1.382265     -0.023101
  C      -3.943469     -0.007338     -0.000349
  C      -2.837067     -0.861968      0.123134
  C      -1.553628     -0.341272      0.219421
  C      -1.346470      1.049885      0.193264
  C      -2.459299      1.903566      0.075231
  H      -2.302571      2.977386      0.051339
  H      -4.596529      2.047744     -0.121183
  H      -3.002169     -1.935327      0.146103
  H      -0.713519     -1.021428      0.328902
  C       0.006233      1.626873      0.285385
  C       1.171802      0.896620      0.157537
  O       0.042024      2.944564      0.491242
  C       2.460233      1.535231      0.247933
  C       3.700873      0.716504      0.125798
  H       1.114646     -0.163986     -0.045198
  H       1.042884      3.171453      0.513802
  O       2.565150      2.788175      0.418202
  C       3.688590     -0.685405      0.166965
  C       4.920513      1.402623     -0.025491
  C       6.114628      0.690326     -0.142742
  C       6.099174     -0.715913     -0.098000
  H       4.897006      2.486767     -0.053557
  C       4.892048     -1.389519      0.059361
  H       7.039589     -1.255148     -0.188798
  H       4.886944     -2.476332      0.098412
  H       2.761453     -1.234712      0.300309
  C      -5.297083     -0.619948     -0.101953
  O      -5.511437     -1.825953     -0.093773
  O      -6.276500      0.305725     -0.186151
  C      -7.625911     -0.216025     -0.280256
  H      -7.729423     -0.832229     -1.177333
  H      -8.269886      0.660856     -0.335585
  H      -7.859699     -0.815695      0.603414
  O       7.338722      1.272116     -0.307901
  C       7.382677      2.708167     -0.347085
  H       8.434001      2.967547     -0.476772
  H       7.005676      3.137884      0.589170
  H       6.796621      3.095194     -1.189696
39
Coordinates from ORCA-job Aldol_Cry E -1072.340389920643
  C      -3.738737      1.384405     -0.013491
  C      -3.950593     -0.002488      0.023518
  C      -2.853513     -0.866679      0.160732
  C      -1.565844     -0.356670      0.254286
  C      -1.345637      1.032409      0.211256
  C      -2.449117      1.895509      0.082785
  H      -2.283790      2.966954      0.049377
  H      -4.582641      2.057081     -0.120168
  H      -3.027289     -1.937436      0.197271
  H      -0.732846     -1.041647      0.374960
  C       0.012409      1.594492      0.294269
  C       1.173303      0.853768      0.178823
  O       0.067278      2.917195      0.470213
  C       2.454285      1.497361      0.257453
  C       3.705284      0.699343      0.126353
  H       1.112255     -0.208363     -0.006487
  H       1.079475      3.126157      0.467342
  O       2.541676      2.752537      0.440199
  C       3.710034     -0.702833      0.158921
  C       4.914282      1.403227     -0.024220
  C       6.115972      0.705055     -0.151779
  C       6.119300     -0.701003     -0.115425
  H       4.877932      2.485808     -0.043816
  C       4.921591     -1.390893      0.042745
  H       7.064506     -1.228154     -0.212652
  H       4.930794     -2.476882      0.076353
  H       2.790993     -1.262869      0.292074
  C      -5.308540     -0.603354     -0.078347
  O      -5.534000     -1.806620     -0.072586
  O      -6.276632      0.331723     -0.198288
  C      -7.628182     -0.188097     -0.318417
  H      -7.709572     -0.813324     -1.210535
  H      -8.263712      0.692407     -0.400522
  H      -7.883140     -0.773282      0.568086
  O       7.333869      1.301708     -0.318637
  C       7.357323      2.741340     -0.352408
  H       8.403835      3.013415     -0.489089
  H       6.980914      3.158450      0.588638
  H       6.758511      3.119522     -1.188786
39
Coordinates from ORCA-job Aldol_Cry E -1072.340324051553
  C      -3.731903      1.384269     -0.006984
  C      -3.951113     -0.000558      0.007624
  C      -2.860076     -0.872412      0.135662
  C      -1.571093     -0.370949      0.241353
  C      -1.343445      1.016865      0.220246
  C      -2.440972      1.886866      0.101147
  H      -2.270875      2.957131      0.086465
  H      -4.571042      2.062969     -0.104938
  H      -3.038965     -1.941999      0.155860
  H      -0.742850     -1.061037      0.355679
  C       0.015993      1.571683      0.318969
  C       1.174299      0.827349      0.207634
  O       0.078152      2.890265      0.515313
  C       2.450377      1.472528      0.282512
  C       3.706865      0.687766      0.145909
  H       1.111370     -0.233669      0.022238
  H       1.095102      3.090576      0.541781
  O       2.526708      2.734366      0.421710
  C       3.727461     -0.712821      0.197899
  C       4.904705      1.402751     -0.028423
  C       6.111945      0.716150     -0.158991
  C       6.131015     -0.687926     -0.103043
  H       4.856103      2.483637     -0.061347
  C       4.943953     -1.388340      0.077965
  H       7.079760     -1.206031     -0.202499
  H       4.965969     -2.472700      0.127203
  H       2.816977     -1.280039      0.349626
  C      -5.311232     -0.591625     -0.108255
  O      -5.544260     -1.791851     -0.113697
  O      -6.274378      0.350200     -0.208567
  C      -7.628570     -0.163281     -0.331216
  H      -7.713499     -0.772279     -1.233561
  H      -8.259554      0.721586     -0.395844
  H      -7.879510     -0.761245      0.547226
  O       7.323245      1.320973     -0.345390
  C       7.335416      2.760036     -0.401980
  H       8.378639      3.034678     -0.554613
  H       6.966667      3.186979      0.536978
  H       6.724649      3.118410     -1.237653
39
Coordinates from ORCA-job Aldol_Cry E -1072.340516265126
  C      -3.737077      1.382416     -0.020839
  C      -3.948194     -0.003130      0.004223
  C      -2.851334     -0.867545      0.130632
  C      -1.564908     -0.358169      0.225280
  C      -1.345376      1.030478      0.194969
  C      -2.448648      1.892819      0.075982
  H      -2.284756      2.964026      0.053373
  H      -4.580905      2.055686     -0.117942
  H      -3.024022     -1.938150      0.158063
  H      -0.731884     -1.043053      0.338501
  C       0.010795      1.595902      0.285317
  C       1.172016      0.854865      0.174036
  O       0.061821      2.914965      0.470727
  C       2.452385      1.493084      0.254488
  C       3.702943      0.698114      0.127215
  H       1.108155     -0.206879     -0.009452
  H       1.076471      3.128455      0.481837
  O       2.541364      2.750849      0.418887
  C       3.710404     -0.702654      0.167468
  C       4.909252      1.403308     -0.025009
  C       6.111937      0.707499     -0.144205
  C       6.117146     -0.696842     -0.100370
  H       4.870457      2.485186     -0.049319
  C       4.921830     -1.387932      0.058112
  H       7.062742     -1.222714     -0.191190
  H       4.933460     -2.473058      0.097741
  H       2.792439     -1.262931      0.301854
  C      -5.305931     -0.602407     -0.097876
  O      -5.532370     -1.803501     -0.088005
  O      -6.275861      0.332645     -0.189882
  C      -7.628789     -0.186974     -0.289707
  H      -7.723813     -0.802058     -1.187077
  H      -8.264965      0.694536     -0.350415
  H      -7.864040     -0.781054      0.595853
  O       7.331270      1.302117     -0.307287
  C       7.360200      2.740440     -0.351604
  H       8.408909      3.004063     -0.486215
  H       6.982386      3.163975      0.585531
  H       6.766524      3.112895     -1.193694
39
Coordinates from ORCA-job Aldol_Cry E -1072.340518929583
  C      -3.738400      1.382776     -0.006089
  C      -3.949818     -0.002938      0.015971
  C      -2.852515     -0.867978      0.136714
  C      -1.565611     -0.358930      0.229433
  C      -1.345785      1.029970      0.202386
  C      -2.449397      1.892895      0.088827
  H      -2.285589      2.964380      0.068323
  H      -4.582341      2.056764     -0.099316
  H      -3.024915     -1.938876      0.161396
  H      -0.732060     -1.044370      0.337778
  C       0.010932      1.595166      0.289654
  C       1.172444      0.853678      0.176157
  O       0.063998      2.913780      0.472725
  C       2.452536      1.492822      0.249199
  C       3.703932      0.698906      0.125067
  H       1.107483     -0.208807     -0.004114
  H       1.081575      3.122621      0.482926
  O       2.541377      2.751779      0.413692
  C       3.711262     -0.702080      0.167738
  C       4.910400      1.404170     -0.027568
  C       6.113084      0.707829     -0.144956
  C       6.118463     -0.696644     -0.098738
  H       4.871762      2.486202     -0.054373
  C       4.922879     -1.387780      0.060139
  H       7.064241     -1.222886     -0.188460
  H       4.934587     -2.473062      0.101143
  H       2.792575     -1.261738      0.301744
  C      -5.308220     -0.601885     -0.083558
  O      -5.533681     -1.803419     -0.090930
  O      -6.276833      0.333654     -0.188378
  C      -7.628970     -0.186444     -0.305799
  H      -7.711835     -0.801253     -1.204575
  H      -8.264011      0.695326     -0.374658
  H      -7.875072     -0.780400      0.576914
  O       7.332216      1.302482     -0.309401
  C       7.358978      2.741305     -0.358490
  H       8.407245      3.005699     -0.495355
  H       6.981658      3.166916      0.577977
  H       6.763462      3.109640     -1.201141
39
Coordinates from ORCA-job Aldol_Cry E -1072.340538980803
  C      -3.737582      1.382579     -0.013148
  C      -3.950986     -0.002785      0.008922
  C      -2.854920     -0.869348      0.130316
  C      -1.567343     -0.362074      0.223238
  C      -1.345467      1.026534      0.196001
  C      -2.447847      1.890940      0.081935
  H      -2.282713      2.962222      0.061219
  H      -4.580424      2.057873     -0.106796
  H      -3.028581     -1.940033      0.154956
  H      -0.734755     -1.048663      0.331562
  C       0.011923      1.590322      0.283506
  C       1.172985      0.847218      0.174069
  O       0.067808      2.909107      0.461468
  C       2.451821      1.487098      0.248584
  C       3.705153      0.696453      0.125538
  H       1.107636     -0.215691     -0.003335
  H       1.087359      3.114877      0.470396
  O       2.537528      2.747166      0.410801
  C       3.715198     -0.704628      0.166922
  C       4.910374      1.404368     -0.024663
  C       6.114565      0.710421     -0.140742
  C       6.122719     -0.694076     -0.095683
  H       4.869686      2.486316     -0.050681
  C       4.928296     -1.387866      0.060669
  H       7.069630     -1.218422     -0.184383
  H       4.942214     -2.473146      0.100623
  H       2.797222     -1.265901      0.298731
  C      -5.310188     -0.599880     -0.091615
  O      -5.538075     -1.800961     -0.090190
  O      -6.278355      0.337282     -0.186189
  C      -7.632405     -0.181173     -0.292515
  H      -7.723566     -0.793876     -1.191874
  H      -8.266666      0.701678     -0.353894
  H      -7.870910     -0.776466      0.591320
  O       7.332782      1.307584     -0.302859
  C       7.356225      2.746709     -0.352256
  H       8.404033      3.013139     -0.488469
  H       6.977281      3.171284      0.583975
  H       6.760382      3.113094     -1.195458
39
Coordinates from ORCA-job Aldol_Cry E -1072.340542578764
  C      -3.738002      1.382387     -0.013720
  C      -3.950667     -0.002976      0.006941
  C      -2.853973     -0.869033      0.125101
  C      -1.566604     -0.361324      0.216635
  C      -1.345424      1.027291      0.191243
  C      -2.448432      1.891117      0.079890
  H      -2.283883      2.962449      0.060418
  H      -4.581283      2.057374     -0.104969
  H      -3.027043     -1.939791      0.148333
  H      -0.733632     -1.047756      0.322317
  C       0.011489      1.592635      0.278387
  C       1.172652      0.849006      0.171170
  O       0.066132      2.911160      0.455260
  C       2.451703      1.487558      0.247630
  C       3.704677      0.696563      0.125308
  H       1.106809     -0.214043     -0.004763
  H       1.085885      3.119377      0.465519
  O       2.538024      2.748254      0.404885
  C       3.714391     -0.704445      0.166480
  C       4.910222      1.403989     -0.023626
  C       6.114378      0.709928     -0.138213
  C       6.121904     -0.694480     -0.093232
  H       4.869778      2.485898     -0.049471
  C       4.927242     -1.387949      0.061582
  H       7.068743     -1.219029     -0.180706
  H       4.940883     -2.473171      0.101381
  H       2.796088     -1.265305      0.297227
  C      -5.309768     -0.600545     -0.091525
  O      -5.536932     -1.801639     -0.090943
  O      -6.278560      0.335969     -0.182308
  C      -7.632581     -0.182493     -0.285593
  H      -7.725996     -0.793983     -1.185542
  H      -8.267268      0.700226     -0.343899
  H      -7.868341     -0.779216      0.598010
  O       7.333041      1.306547     -0.298152
  C       7.357978      2.745354     -0.348332
  H       8.406257      3.010519     -0.483387
  H       6.978446      3.170904      0.587201
  H       6.763706      3.111946     -1.192536
39
Coordinates from ORCA-job Aldol_Cry E -1072.340544742665
  C      -3.738862      1.382261     -0.012251
  C      -3.951273     -0.003171      0.005669
  C      -2.854069     -0.869271      0.118633
  C      -1.566536     -0.361628      0.208019
  C      -1.345556      1.027035      0.185594
  C      -2.449078      1.890877      0.079100
  H      -2.284761      2.962288      0.061712
  H      -4.582452      2.057388     -0.099622
  H      -3.026848     -1.940134      0.139476
  H      -0.733272     -1.048373      0.309370
  C       0.011330      1.593105      0.270985
  C       1.172551      0.849080      0.164358
  O       0.066307      2.911306      0.446424
  C       2.451342      1.487899      0.238970
  C       3.704747      0.696998      0.121854
  H       1.106434     -0.214344     -0.009158
  H       1.086950      3.119001      0.457672
  O       2.537254      2.749026      0.395426
  C       3.714351     -0.704010      0.164352
  C       4.910858      1.404195     -0.023600
  C       6.115404      0.710064     -0.133461
  C       6.122648     -0.694322     -0.087247
  H       4.870511      2.486091     -0.050632
  C       4.927461     -1.387681      0.064047
  H       7.069787     -1.218968     -0.171049
  H       4.940996     -2.472878      0.104648
  H       2.795432     -1.264534      0.292309
  C      -5.310582     -0.600759     -0.090392
  O      -5.537406     -1.801941     -0.092132
  O      -6.279753      0.335662     -0.176063
  C      -7.634040     -0.182532     -0.276602
  H      -7.730115     -0.791664     -1.177882
  H      -8.268958      0.700285     -0.330598
  H      -7.867000     -0.781689      0.606107
  O       7.334544      1.306535     -0.289602
  C       7.359719      2.745190     -0.342259
  H       8.408409      3.010042     -0.474804
  H       6.977629      3.172475      0.591454
  H       6.767932      3.110371     -1.188826
39
Coordinates from ORCA-job Aldol_Cry E -1072.340546136872
  C      -3.739603      1.382378     -0.010185
  C      -3.952094     -0.003131      0.005785
  C      -2.854588     -0.869457      0.114461
  C      -1.566744     -0.362109      0.201730
  C      -1.345616      1.026576      0.181434
  C      -2.449467      1.890656      0.078984
  H      -2.285114      2.962118      0.063037
  H      -4.583317      2.057800     -0.094385
  H      -3.027310     -1.940391      0.133485
  H      -0.733420     -1.049395      0.299177
  C       0.011407      1.593039      0.264653
  C       1.172704      0.848106      0.161117
  O       0.067273      2.911422      0.434435
  C       2.451226      1.487236      0.234547
  C       3.705142      0.696869      0.120406
  H       1.106330     -0.215998     -0.008045
  H       1.089212      3.117542      0.444868
  O       2.536729      2.749304      0.387216
  C       3.714933     -0.704250      0.162528
  C       4.911544      1.404268     -0.022217
  C       6.116501      0.710368     -0.129564
  C       6.123842     -0.694098     -0.083689
  H       4.871100      2.486198     -0.049225
  C       4.928381     -1.387769      0.064683
  H       7.071297     -1.218567     -0.165570
  H       4.942072     -2.473005      0.104813
  H       2.795625     -1.264758      0.287979
  C      -5.311688     -0.600576     -0.088165
  O      -5.538333     -1.801894     -0.092487
  O      -6.280935      0.335909     -0.170901
  C      -7.635426     -0.182024     -0.270463
  H      -7.732884     -0.789376     -1.172814
  H      -8.270433      0.700892     -0.321696
  H      -7.867066     -0.783040      0.611348
  O       7.335703      1.307263     -0.282926
  C       7.360182      2.745897     -0.336996
  H       8.408870      3.011290     -0.468584
  H       6.976805      3.174003      0.595839
  H       6.769197      3.109974     -1.184612
