! TPSS D3BJ def2-TZVP RI def2/J CPCM(THF)
! Opt numfreq Pal8

* xyz 0 1
C       -3.0488250000      2.5263460000     -0.6205580000                 
C       -3.2258670000      1.5204620000      0.3411130000                 
C       -2.1062910000      0.9575720000      0.9597500000                 
C       -0.8205750000      1.3830920000      0.6413760000                 
C       -0.6444900000      2.3894070000     -0.3248250000                 
C       -1.7599420000      2.9528510000     -0.9511840000                 
H       -1.6218560000      3.7291430000     -1.6970720000                 
H       -4.2174310000      1.1750850000      0.6105760000                 
H       -2.2506670000      0.1772420000      1.7015410000                 
H        0.0337750000      0.9320010000      1.1332900000                 
C        0.7111110000      2.8841590000     -0.7195690000                 
C        1.9210200000      2.3510440000      0.0287590000                 
O        0.8386690000      3.6889430000     -1.6412440000                 
C        3.2283060000      3.0881420000     -0.2955560000                 
H        2.0338180000      1.2912920000     -0.2410060000                 
H        1.7194770000      2.3541730000      1.1056780000                 
C        4.4059760000      2.4282520000      0.3769260000                 
C        3.3335395803      4.5176892477      0.0922848018                 
H        3.3900630000      3.0442650000     -1.3765310000                 
C        2.3714316702      5.5168879312     -0.1232645412                 
C        2.5497786095      6.8011458205      0.3773041418                 
O       -4.0731140000      3.1440960000     -1.2832970000                 
C       -5.4128690000      2.7254490000     -0.9659410000                 
H       -5.5521370000      1.6634880000     -1.1974540000                 
H       -6.0614640000      3.3335030000     -1.5961720000                 
H       -5.6361440000      2.9093960000      0.0909350000                 
C        3.6987953575      7.1250034904      1.1129905258                 
C        4.6680268471      6.1328949742      1.3334362682                 
C        4.4817000706      4.8523891794      0.8270679887                 
H        5.2393498502      4.0915912288      0.9959014006                 
H        5.5655940065      6.3719372672      1.8936467684                 
H        1.4704747939      5.2932625512     -0.6874543197                 
H        1.8026077590      7.5694563097      0.2038502484                 
C        3.8430080441      8.5070482265      1.6238045144                 
O        4.9840546810      8.6832610280      2.3352256898                 
O        3.0356203812      9.4094222596      1.4399324190                 
C        5.1797309288     10.0199834043      2.8646434962                 
H        5.2352269236     10.7410714089      2.0459987270                 
H        6.1228330497      9.9731326978      3.4074627361                 
H        4.3560124016     10.2805355582      3.5329955637                 
C        5.5345690000      2.0523230000     -0.2953040000                 
C        6.6824340000      1.4252040000      0.4361660000                 
O        5.6974510000      2.2234380000     -1.5911450000                 
H        4.3516300000      2.3082500000      1.4545500000                 
C        6.5766110000      0.9242970000      1.7503000000                 
C        7.9157570000      1.3257100000     -0.2139040000                 
C        9.0273410000      0.7571830000      0.4212270000                 
H        8.0151220000      1.6980610000     -1.2283290000                 
C        7.6813730000      0.3597930000      2.3747360000                 
C        8.9206500000      0.2688290000      1.7268380000                 
H        9.7666770000     -0.1792730000      2.2348900000                 
H        5.6276200000      0.9587060000      2.2747680000                 
H        7.5875870000     -0.0292290000      3.3855210000                 
O       10.1827720000      0.7229270000     -0.3222150000                 
C       11.3408390000      0.1425400000      0.2984570000                 
H       11.6217080000      0.7011400000      1.1989590000                 
H       12.1351840000      0.2112200000     -0.4451800000                 
H       11.1594650000     -0.9072740000      0.5569040000                 
Li       5.7665070000      2.5470690000     -3.2186620000                 
*
