! PW6B95 D3BJ def2-QZVP RIJK def2/JK tightSCF CPCM(THF)
! sp Pal4

* xyz 0 1
  N   -3.64831299155467     -1.91653970228591     -0.96978025551186
  C   -2.19547949101286     -2.19150366807883     -0.91737607775784
  C   -4.39203297300550     -2.02606804889088      0.30216287906824
  H   -4.06465227678161     -2.57345649753033     -1.63360890268795
  C   -1.62646658604898     -1.98936944142639     -2.32348866564902
  C   -1.82964658667418     -3.58408012747822     -0.37727532850084
  H   -1.75377116499963     -1.43599149690000     -0.25636984758823
  C   -3.94596440578179     -0.93618718560648      1.27961000376150
  H   -4.22775365921330     -3.00576723938650      0.78449531088715
  C   -5.88400621439720     -1.90431653799069     -0.01292348752386
  H   -2.06655723448055     -2.71502868041604     -3.01975568798743
  H   -0.54086806951153     -2.13306171541689     -2.32804745583680
  H   -1.85069123257232     -0.98263554799586     -2.68998315521881
  H   -2.25423799748349     -4.36441849122119     -1.02159221972811
  H   -2.20524230421919     -3.73772137871048      0.63961352294554
  H   -0.74140163830100     -3.71310353674875     -0.35583101074491
  H   -2.89553856565558     -1.05058816500658      1.56560841148406
  H   -4.54868580911136     -0.98265636491596      2.19292167651089
  H   -4.07422160759139      0.05337741631701      0.82541259063916
  H   -6.10063682695167     -0.92764190544136     -0.46100776757572
  H   -6.48023003040399     -2.01013583706624      0.89941762825976
  H   -6.19748296514888     -2.68334166360376     -0.71829987924518
*
