22
Coordinates from ORCA-job DiPA_freqopt E -292.602063717002
  N      -3.583444     -1.943658     -0.874728
  C      -2.191985     -2.364398     -0.833487
  C      -4.291371     -1.903190      0.399010
  H      -4.086123     -2.519646     -1.541719
  C      -1.490304     -1.846159     -2.089519
  C      -2.019310     -3.885848     -0.716315
  H      -1.734690     -1.890143      0.042803
  C      -4.059779     -0.539518      1.056076
  H      -3.925580     -2.686690      1.089698
  C      -5.783270     -2.128497      0.166352
  H      -1.919164     -2.306599     -2.976780
  H      -0.428789     -2.077848     -2.054021
  H      -1.616451     -0.769999     -2.165255
  H      -2.428982     -4.378156     -1.597237
  H      -2.534677     -4.267192      0.163536
  H      -0.966468     -4.143643     -0.633210
  H      -2.998398     -0.364691      1.211565
  H      -4.563732     -0.492066      2.018322
  H      -4.445268      0.245572      0.411269
  H      -6.165184     -1.383272     -0.527238
  H      -6.327417     -2.046003      1.103832
  H      -5.963493     -3.118593     -0.249050
22
Coordinates from ORCA-job DiPA_freqopt E -292.603652958839
  N      -3.601750     -1.927060     -0.906745
  C      -2.192587     -2.338142     -0.858621
  C      -4.305243     -1.908749      0.383215
  H      -4.101235     -2.522821     -1.567529
  C      -1.476691     -1.859664     -2.128611
  C      -2.012747     -3.855409     -0.671387
  H      -1.743112     -1.829304      0.003714
  C      -4.047544     -0.572010      1.094012
  H      -3.942557     -2.719067      1.042521
  C      -5.802886     -2.119974      0.152537
  H      -1.905731     -2.349535     -3.010348
  H      -0.408513     -2.098088     -2.085532
  H      -1.595785     -0.778176     -2.242527
  H      -2.418050     -4.389566     -1.538709
  H      -2.536435     -4.203673      0.225474
  H      -0.952476     -4.112182     -0.570450
  H      -2.974450     -0.409990      1.240102
  H      -4.535836     -0.556031      2.074661
  H      -4.439779      0.248970      0.484856
  H      -6.189983     -1.344779     -0.518512
  H      -6.346359     -2.064574      1.100222
  H      -5.994132     -3.100413     -0.298440
22
Coordinates from ORCA-job DiPA_freqopt E -292.603980856297
  N      -3.614267     -1.915234     -0.929346
  C      -2.195307     -2.316011     -0.871407
  C      -4.313733     -1.918464      0.369389
  H      -4.103939     -2.533784     -1.577760
  C      -1.481976     -1.870202     -2.153182
  C      -2.004579     -3.825195     -0.631909
  H      -1.753326     -1.775062     -0.024795
  C      -4.031037     -0.608183      1.117181
  H      -3.960446     -2.751959      1.002833
  C      -5.813611     -2.106361      0.134475
  H      -1.912511     -2.382995     -3.023574
  H      -0.413274     -2.110704     -2.108947
  H      -1.597488     -0.790401     -2.297678
  H      -2.403620     -4.391431     -1.483772
  H      -2.529190     -4.149418      0.274384
  H      -0.942259     -4.075313     -0.519495
  H      -2.953599     -0.460391      1.255755
  H      -4.504955     -0.617416      2.106143
  H      -4.423332      0.239124      0.541442
  H      -6.195779     -1.308076     -0.515017
  H      -6.358034     -2.070757      1.084057
  H      -6.017618     -3.072004     -0.344875
22
Coordinates from ORCA-job DiPA_freqopt E -292.604126587171
  N      -3.622385     -1.914906     -0.939645
  C      -2.194992     -2.303210     -0.876126
  C      -4.323786     -1.928599      0.362843
  H      -4.100532     -2.557004     -1.574678
  C      -1.495581     -1.878050     -2.169636
  C      -1.985305     -3.803843     -0.604691
  H      -1.757692     -1.736062     -0.044827
  C      -4.019088     -0.638953      1.133340
  H      -3.988892     -2.780173      0.980658
  C      -5.824541     -2.085405      0.117148
  H      -1.930964     -2.406418     -3.028379
  H      -0.426598     -2.117242     -2.132280
  H      -1.611982     -0.801396     -2.334110
  H      -2.379494     -4.393025     -1.443278
  H      -2.501238     -4.118130      0.309371
  H      -0.920330     -4.040729     -0.491563
  H      -2.940192     -0.506636      1.272097
  H      -4.487555     -0.662342      2.124245
  H      -4.402994      0.227142      0.580297
  H      -6.191824     -1.269447     -0.518632
  H      -6.374693     -2.058312      1.063733
  H      -6.043224     -3.037496     -0.381983
22
Coordinates from ORCA-job DiPA_freqopt E -292.604184097945
  N      -3.624998     -1.920027     -0.940217
  C      -2.192687     -2.296762     -0.876326
  C      -4.331092     -1.937289      0.361472
  H      -4.093583     -2.578400     -1.566206
  C      -1.509919     -1.883424     -2.181184
  C      -1.966742     -3.790534     -0.588086
  H      -1.756216     -1.712500     -0.057150
  C      -4.012896     -0.660415      1.144736
  H      -4.014980     -2.801200      0.971741
  C      -5.831728     -2.066461      0.102827
  H      -1.952483     -2.421083     -3.029727
  H      -0.440483     -2.120400     -2.154019
  H      -1.629189     -0.809473     -2.356680
  H      -2.360097     -4.394167     -1.416150
  H      -2.470692     -4.101091      0.333278
  H      -0.899084     -4.014703     -0.480895
  H      -2.934274     -0.540819      1.291180
  H      -4.485435     -0.689304      2.132990
  H      -4.384526      0.216767      0.602122
  H      -6.181891     -1.238134     -0.525309
  H      -6.389107     -2.042421      1.044875
  H      -6.061781     -3.008396     -0.409371
22
Coordinates from ORCA-job DiPA_freqopt E -292.604202903247
  N      -3.624802     -1.924427     -0.937786
  C      -2.190836     -2.293566     -0.875782
  C      -4.334425     -1.942785      0.361397
  H      -4.088395     -2.588516     -1.561623
  C      -1.518989     -1.886497     -2.188532
  C      -1.955941     -3.783555     -0.579207
  H      -1.752909     -1.700816     -0.063764
  C      -4.010321     -0.672169      1.151658
  H      -4.030097     -2.813248      0.968657
  C      -5.835061     -2.055594      0.094335
  H      -1.967187     -2.429508     -3.030222
  H      -0.449020     -2.121313     -2.168410
  H      -1.641321     -0.814066     -2.369273
  H      -2.350896     -4.395134     -1.400294
  H      -2.451342     -4.091340      0.347552
  H      -0.886350     -3.999990     -0.477779
  H      -2.932378     -0.561199      1.307642
  H      -4.490809     -0.701718      2.135878
  H      -4.370967      0.210276      0.610883
  H      -6.173715     -1.219757     -0.529390
  H      -6.396865     -2.033747      1.033611
  H      -6.071256     -2.991568     -0.425651
22
Coordinates from ORCA-job DiPA_freqopt E -292.604216259738
  N      -3.624691     -1.928158     -0.935770
  C      -2.189479     -2.289340     -0.876210
  C      -4.337539     -1.948656      0.360298
  H      -4.084031     -2.594418     -1.560517
  C      -1.527873     -1.890338     -2.197312
  C      -1.945375     -3.775384     -0.568688
  H      -1.749328     -1.687635     -0.072132
  C      -4.007341     -0.685323      1.159720
  H      -4.044822     -2.825972      0.963784
  C      -5.838478     -2.045046      0.085829
  H      -1.981485     -2.440643     -3.031123
  H      -0.457143     -2.122013     -2.183250
  H      -1.654506     -0.819629     -2.384666
  H      -2.342820     -4.396511     -1.381213
  H      -2.431992     -4.077793      0.364463
  H      -0.873678     -3.984040     -0.473237
  H      -2.930264     -0.585410      1.328238
  H      -4.498938     -0.714936      2.138424
  H      -4.353744      0.203017      0.619521
  H      -6.165778     -1.200279     -0.531513
  H      -6.403801     -2.027656      1.023017
  H      -6.080776     -2.974070     -0.443760
22
Coordinates from ORCA-job DiPA_freqopt E -292.604229745981
  N      -3.625520     -1.930796     -0.935359
  C      -2.188656     -2.282182     -0.878506
  C      -4.341852     -1.956321      0.357167
  H      -4.080162     -2.597106     -1.563518
  C      -1.538751     -1.896813     -2.210122
  C      -1.932058     -3.762463     -0.552557
  H      -1.745909     -1.667402     -0.085897
  C      -4.002645     -0.704750      1.171577
  H      -4.063300     -2.843163      0.953720
  C      -5.843206     -2.031708      0.074975
  H      -1.997686     -2.459393     -3.032771
  H      -0.466922     -2.123539     -2.201734
  H      -1.671892     -0.828925     -2.409017
  H      -2.332704     -4.398164     -1.352156
  H      -2.407743     -4.054710      0.389467
  H      -0.857809     -3.961384     -0.464075
  H      -2.926903     -0.621880      1.357143
  H      -4.509384     -0.735132      2.142541
  H      -4.328368      0.192685      0.633407
  H      -6.157229     -1.173905     -0.531083
  H      -6.411931     -2.023076      1.010233
  H      -6.093253     -2.950108     -0.469533
22
Coordinates from ORCA-job DiPA_freqopt E -292.604250558688
  N      -3.628253     -1.932212     -0.937727
  C      -2.188325     -2.267778     -0.884365
  C      -4.350057     -1.969466      0.349775
  H      -4.075466     -2.597040     -1.572784
  C      -1.556902     -1.910418     -2.233123
  C      -1.909531     -3.736313     -0.521989
  H      -1.742546     -1.628304     -0.113383
  C      -3.993655     -0.741860      1.193241
  H      -4.094885     -2.873445      0.931076
  C      -5.851478     -2.008542      0.056552
  H      -2.021781     -2.497576     -3.035209
  H      -0.483155     -2.127619     -2.231783
  H      -1.702221     -0.848798     -2.456318
  H      -2.314886     -4.399191     -1.296911
  H      -2.366817     -4.007594      0.435324
  H      -0.831434     -3.919125     -0.444797
  H      -2.921000     -0.691606      1.406452
  H      -4.524782     -0.774712      2.151017
  H      -4.282307      0.172834      0.662592
  H      -6.144563     -1.127354     -0.526028
  H      -6.425394     -2.018153      0.988670
  H      -6.114440     -2.905963     -0.516381
22
Coordinates from ORCA-job DiPA_freqopt E -292.604286766558
  N      -3.635729     -1.932090     -0.946473
  C      -2.189265     -2.234290     -0.898873
  C      -4.369240     -1.997986      0.330996
  H      -4.067255     -2.593288     -1.596107
  C      -1.595517     -1.944787     -2.280989
  C      -1.861501     -3.671250     -0.454246
  H      -1.740749     -1.539838     -0.178819
  C      -3.974174     -0.829624      1.239139
  H      -4.164480     -2.938256      0.873453
  C      -5.867917     -1.956394      0.018683
  H      -2.066912     -2.588484     -3.034900
  H      -0.517773     -2.139684     -2.291977
  H      -1.769318     -0.901172     -2.562269
  H      -2.274283     -4.393072     -1.170679
  H      -2.279087     -3.891897      0.533685
  H      -0.776681     -3.820854     -0.402449
  H      -2.912390     -0.855312      1.504743
  H      -4.552492     -0.866391      2.168970
  H      -4.181246      0.121167      0.733618
  H      -6.116643     -1.026681     -0.506362
  H      -6.454005     -2.007984      0.941924
  H      -6.157222     -2.802071     -0.617163
22
Coordinates from ORCA-job DiPA_freqopt E -292.604305871435
  N      -3.645606     -1.928109     -0.960919
  C      -2.193482     -2.198663     -0.914978
  C      -4.388813     -2.025957      0.307910
  H      -4.062202     -2.584735     -1.624777
  C      -1.629660     -1.983019     -2.322697
  C      -1.820592     -3.596507     -0.386924
  H      -1.748127     -1.450760     -0.248117
  C      -3.953017     -0.924245      1.278292
  H      -4.230350     -2.999606      0.805122
  C      -5.882026     -1.905397     -0.012758
  H      -2.096662     -2.685337     -3.025736
  H      -0.547856     -2.152073     -2.340023
  H      -1.834611     -0.963970     -2.666706
  H      -2.236382     -4.373615     -1.041266
  H      -2.203355     -3.760672      0.625824
  H      -0.731370     -3.717623     -0.358368
  H      -2.906068     -1.029544      1.580894
  H      -4.567846     -0.962320      2.184197
  H      -4.080797      0.058180      0.807561
  H      -6.090759     -0.932432     -0.472927
  H      -6.479265     -2.001275      0.899959
  H      -6.195035     -2.692557     -0.709662
22
Coordinates from ORCA-job DiPA_freqopt E -292.604338100492
  N      -3.646199     -1.922238     -0.964946
  C      -2.195457     -2.202758     -0.913590
  C      -4.385112     -2.019290      0.308417
  H      -4.067569     -2.576829     -1.627617
  C      -1.617956     -1.976267     -2.313185
  C      -1.837648     -3.607768     -0.396439
  H      -1.752464     -1.463656     -0.234835
  C      -3.951587     -0.907274      1.267622
  H      -4.209671     -2.987825      0.809647
  C      -5.880763     -1.919831     -0.003358
  H      -2.074540     -2.674342     -3.027196
  H      -0.535741     -2.143700     -2.320091
  H      -1.820459     -0.955433     -2.653148
  H      -2.252924     -4.374363     -1.063291
  H      -2.231819     -3.779617      0.610731
  H      -0.749948     -3.738661     -0.358748
  H      -2.898056     -0.998769      1.551598
  H      -4.550199     -0.949707      2.184079
  H      -4.099050      0.071968      0.796267
  H      -6.106251     -0.954356     -0.471537
  H      -6.471441     -2.012369      0.914066
  H      -6.189027     -2.717152     -0.690543
22
Coordinates from ORCA-job DiPA_freqopt E -292.604349458492
  N      -3.648046     -1.919725     -0.968360
  C      -2.195983     -2.196737     -0.915981
  C      -4.389029     -2.023020      0.304624
  H      -4.066939     -2.575145     -1.631897
  C      -1.622339     -1.983125     -2.318650
  C      -1.833017     -3.594796     -0.385806
  H      -1.754437     -1.448609     -0.246352
  C      -3.947974     -0.922831      1.273494
  H      -4.219533     -2.997399      0.796172
  C      -5.882955     -1.911760     -0.007942
  H      -2.072022     -2.694281     -3.023965
  H      -0.538704     -2.140951     -2.324319
  H      -1.833783     -0.968836     -2.672106
  H      -2.250625     -4.369245     -1.041899
  H      -2.219861     -3.757443      0.625575
  H      -0.744925     -3.723288     -0.353902
  H      -2.896059     -1.026966      1.558248
  H      -4.548452     -0.967221      2.188497
  H      -4.084889      0.062068      0.811235
  H      -6.104136     -0.940054     -0.464929
  H      -6.475859     -2.011781      0.907236
  H      -6.194313     -2.699092     -0.705072
22
Coordinates from ORCA-job DiPA_freqopt E -292.604355306808
  N      -3.648962     -1.917016     -0.970502
  C      -2.195829     -2.190588     -0.917990
  C      -4.392693     -2.026909      0.301390
  H      -4.064912     -2.573848     -1.634616
  C      -1.627500     -1.990371     -2.324536
  C      -1.828058     -3.581729     -0.375346
  H      -1.754763     -1.433480     -0.258387
  C      -3.945214     -0.938862      1.280310
  H      -4.229924     -3.007329      0.782806
  C      -5.884518     -1.902920     -0.013463
  H      -2.069294     -2.715951     -3.019855
  H      -0.542177     -2.136026     -2.329817
  H      -1.850303     -0.983644     -2.691914
  H      -2.250525     -4.363809     -1.018970
  H      -2.204658     -3.734424      0.641303
  H      -0.739636     -3.708820     -0.352389
  H      -2.895360     -1.055660      1.567280
  H      -4.548911     -0.985066      2.192974
  H      -4.070988      0.051446      0.827012
  H      -6.100156     -0.925080     -0.459511
  H      -6.480792     -2.010058      0.898683
  H      -6.198706     -2.680092     -0.720560
22
Coordinates from ORCA-job DiPA_freqopt E -292.604356137929
  N      -3.648313     -1.916540     -0.969780
  C      -2.195479     -2.191504     -0.917376
  C      -4.392033     -2.026068      0.302163
  H      -4.064652     -2.573456     -1.633609
  C      -1.626467     -1.989369     -2.323489
  C      -1.829647     -3.584080     -0.377275
  H      -1.753771     -1.435991     -0.256370
  C      -3.945964     -0.936187      1.279610
  H      -4.227754     -3.005767      0.784495
  C      -5.884006     -1.904317     -0.012923
  H      -2.066557     -2.715029     -3.019756
  H      -0.540868     -2.133062     -2.328047
  H      -1.850691     -0.982636     -2.689983
  H      -2.254238     -4.364418     -1.021592
  H      -2.205242     -3.737721      0.639614
  H      -0.741402     -3.713104     -0.355831
  H      -2.895539     -1.050588      1.565608
  H      -4.548686     -0.982656      2.192922
  H      -4.074222      0.053377      0.825413
  H      -6.100637     -0.927642     -0.461008
  H      -6.480230     -2.010136      0.899418
  H      -6.197483     -2.683342     -0.718300
