20
Coordinates from ORCA-job Aldehyd_freqopt E -573.800224322623
  C      -2.650531     -0.376376      0.518390
  C      -2.269115     -1.700623      0.298583
  C      -0.944959     -2.004814     -0.017923
  C      -0.012637     -0.991390     -0.116358
  C      -0.390852      0.335578      0.100076
  C      -1.717866      0.634789      0.421116
  H      -1.990671      1.665892      0.587287
  H      -0.662129     -3.031283     -0.186295
  H       1.013250     -1.220520     -0.362904
  C       0.598209      1.413984     -0.013071
  H       1.619305      1.065024     -0.259459
  O       0.369441      2.590730      0.138171
  H      -3.680823     -0.167068      0.762753
  C      -3.307362     -2.758428      0.401589
  O      -2.810619     -3.987478      0.257474
  C      -3.737008     -5.069413      0.336662
  H      -3.160235     -5.968266      0.138102
  H      -4.528881     -4.941868     -0.403357
  H      -4.185614     -5.107480      1.330926
  O      -4.483554     -2.536614      0.592658
20
Coordinates from ORCA-job Aldehyd_freqopt E -573.801760488607
  C      -2.656889     -0.371352      0.516500
  C      -2.270953     -1.701771      0.297348
  C      -0.940195     -2.004871     -0.019912
  C      -0.005467     -0.983333     -0.118940
  C      -0.388525      0.346469      0.098826
  C      -1.722178      0.645965      0.419114
  H      -2.000356      1.681964      0.586337
  H      -0.651131     -3.035790     -0.188161
  H       1.028808     -1.210060     -0.366042
  C       0.615240      1.422697     -0.013655
  H       1.639444      1.068847     -0.262283
  O       0.388504      2.610691      0.143432
  H      -3.692736     -0.160876      0.761379
  C      -3.313577     -2.762900      0.404696
  O      -2.809410     -3.998609      0.254113
  C      -3.749107     -5.087497      0.336155
  H      -3.171133     -5.989011      0.139590
  H      -4.539982     -4.961508     -0.407909
  H      -4.197093     -5.124000      1.333009
  O      -4.495915     -2.540676      0.610826
20
Coordinates from ORCA-job Aldehyd_freqopt E -573.801955145452
  C      -2.658932     -0.372015      0.516908
  C      -2.267856     -1.704753      0.304213
  C      -0.935071     -2.006522     -0.011963
  C      -0.002293     -0.979911     -0.114976
  C      -0.390829      0.350337      0.097485
  C      -1.726735      0.649317      0.415428
  H      -2.010054      1.685216      0.577987
  H      -0.640771     -3.037198     -0.175699
  H       1.033749     -1.203111     -0.360740
  C       0.619637      1.422433     -0.019069
  H       1.641987      1.068276     -0.269747
  O       0.392714      2.614821      0.136711
  H      -3.695654     -0.162128      0.760291
  C      -3.309428     -2.766861      0.420208
  O      -2.802872     -4.003642      0.250781
  C      -3.757547     -5.090195      0.328813
  H      -3.182955     -5.992654      0.125766
  H      -4.545401     -4.952542     -0.415705
  H      -4.200672     -5.127797      1.327287
  O      -4.493667     -2.546694      0.630441
20
Coordinates from ORCA-job Aldehyd_freqopt E -573.801955617968
  C      -2.660929     -0.373705      0.508345
  C      -2.267821     -1.706035      0.289964
  C      -0.934257     -2.006046     -0.024342
  C      -0.002219     -0.976619     -0.120105
  C      -0.393297      0.352275      0.098066
  C      -1.730048      0.649908      0.413866
  H      -2.016525      1.684062      0.580436
  H      -0.637023     -3.034926     -0.192541
  H       1.034626     -1.196358     -0.364351
  C       0.622843      1.419916     -0.011166
  H       1.644734      1.066162     -0.258276
  O       0.399089      2.612583      0.159807
  H      -3.698072     -0.165008      0.749868
  C      -3.310197     -2.767578      0.399808
  O      -2.799695     -4.005916      0.234692
  C      -3.761802     -5.091100      0.337506
  H      -3.187688     -5.995969      0.144419
  H      -4.550999     -4.960438     -0.405894
  H      -4.194471     -5.109283      1.340316
  O      -4.488898     -2.551548      0.644002
20
Coordinates from ORCA-job Aldehyd_freqopt E -573.802011151350
  C      -2.659493     -0.374402      0.512035
  C      -2.265281     -1.706883      0.300364
  C      -0.932130     -2.006986     -0.012735
  C      -0.001593     -0.977425     -0.113222
  C      -0.393760      0.351892      0.098573
  C      -1.730216      0.649565      0.412729
  H      -2.018088      1.683856      0.574301
  H      -0.633697     -3.036078     -0.175953
  H       1.035205     -1.197196     -0.356227
  C       0.620874      1.419454     -0.015329
  H       1.641073      1.066670     -0.270343
  O       0.394756      2.612729      0.141742
  H      -3.696625     -0.165696      0.752688
  C      -3.306102     -2.768749      0.416868
  O      -2.799139     -4.005936      0.235882
  C      -3.763685     -5.089733      0.328356
  H      -3.191268     -5.993566      0.126049
  H      -4.552142     -4.948890     -0.413764
  H      -4.195450     -5.115792      1.331203
  O      -4.485888     -2.552458      0.651204
20
Coordinates from ORCA-job Aldehyd_freqopt E -573.801980173962
  C      -2.658950     -0.374602      0.511991
  C      -2.264209     -1.707145      0.305334
  C      -0.931535     -2.007301     -0.007829
  C      -0.002219     -0.977755     -0.112759
  C      -0.394966      0.352048      0.093814
  C      -1.730966      0.649647      0.407962
  H      -2.019949      1.684134      0.565510
  H      -0.632251     -3.036654     -0.167207
  H       1.034458     -1.197661     -0.355595
  C       0.617689      1.420100     -0.026155
  H       1.641811      1.065615     -0.263389
  O       0.395154      2.611406      0.144350
  H      -3.695985     -0.165878      0.752775
  C      -3.303759     -2.769388      0.427955
  O      -2.799762     -4.005452      0.234426
  C      -3.764272     -5.089140      0.324054
  H      -3.192620     -5.991909      0.115283
  H      -4.554358     -4.943180     -0.415287
  H      -4.192830     -5.119361      1.328084
  O      -4.483132     -2.553148      0.661104
20
Coordinates from ORCA-job Aldehyd_freqopt E -573.802020197125
  C      -2.659203     -0.374627      0.511115
  C      -2.264798     -1.707011      0.302053
  C      -0.931738     -2.007151     -0.009947
  C      -0.001827     -0.977651     -0.111697
  C      -0.394251      0.351949      0.097305
  C      -1.730634      0.649554      0.410257
  H      -2.019520      1.683826      0.569666
  H      -0.632557     -3.036299     -0.171089
  H       1.035145     -1.197431     -0.353630
  C       0.619601      1.419505     -0.018367
  H       1.641038      1.066204     -0.268587
  O       0.394906      2.612089      0.141358
  H      -3.696480     -0.165883      0.751004
  C      -3.305188     -2.768973      0.420874
  O      -2.800369     -4.005392      0.230565
  C      -3.764397     -5.089546      0.325574
  H      -3.192108     -5.992692      0.120211
  H      -4.554929     -4.947130     -0.413971
  H      -4.192079     -5.115671      1.330072
  O      -4.483263     -2.553293      0.661655
20
Coordinates from ORCA-job Aldehyd_freqopt E -573.802022173802
  C      -2.659252     -0.374658      0.510514
  C      -2.264682     -1.707103      0.302607
  C      -0.931433     -2.007283     -0.008531
  C      -0.001672     -0.977729     -0.110479
  C      -0.394288      0.352038      0.097271
  C      -1.730860      0.649668      0.409256
  H      -2.020284      1.683940      0.567677
  H      -0.631829     -3.036457     -0.168706
  H       1.035505     -1.197474     -0.351591
  C       0.619539      1.419525     -0.018629
  H       1.640990      1.066091     -0.268818
  O       0.394942      2.612212      0.139924
  H      -3.696672     -0.165854      0.749771
  C      -3.304991     -2.769123      0.422187
  O      -2.801134     -4.005112      0.226712
  C      -3.764897     -5.089579      0.323984
  H      -3.192649     -5.992463      0.117475
  H      -4.556736     -4.947082     -0.414127
  H      -4.190296     -5.115290      1.329417
  O      -4.481952     -2.553890      0.668508
20
Coordinates from ORCA-job Aldehyd_freqopt E -573.802025512064
  C      -2.659461     -0.374622      0.508790
  C      -2.264262     -1.707380      0.305287
  C      -0.930350     -2.007774     -0.003052
  C      -0.001020     -0.978123     -0.106249
  C      -0.394331      0.352253      0.096694
  C      -1.731571      0.650065      0.405515
  H      -2.022574      1.684480      0.560123
  H      -0.629507     -3.037161     -0.159517
  H       1.036808     -1.197921     -0.344634
  C       0.619130      1.419825     -0.020678
  H       1.640982      1.065765     -0.268960
  O       0.394630      2.612837      0.134340
  H      -3.697322     -0.165560      0.746018
  C      -3.304104     -2.769696      0.428059
  O      -2.803960     -4.003945      0.214098
  C      -3.766384     -5.089483      0.317937
  H      -3.194499     -5.991497      0.106936
  H      -4.562881     -4.946700     -0.415112
  H      -4.184643     -5.115095      1.326269
  O      -4.477332     -2.555890      0.692558
20
Coordinates from ORCA-job Aldehyd_freqopt E -573.802026000343
  C      -2.659556     -0.374531      0.508545
  C      -2.264102     -1.707439      0.306346
  C      -0.930013     -2.007925     -0.001311
  C      -0.000732     -0.978272     -0.105045
  C      -0.394313      0.352247      0.096425
  C      -1.731740      0.650168      0.404463
  H      -2.022958      1.684705      0.557870
  H      -0.628994     -3.037437     -0.156645
  H       1.037243     -1.198165     -0.342732
  C       0.618972      1.419956     -0.021609
  H       1.641018      1.065731     -0.268801
  O       0.394125      2.613096      0.132205
  H      -3.697510     -0.165384      0.745304
  C      -3.303696     -2.769885      0.430152
  O      -2.804676     -4.003601      0.211002
  C      -3.766664     -5.089286      0.316022
  H      -3.195105     -5.991204      0.103703
  H      -4.564439     -4.946513     -0.415682
  H      -4.183522     -5.115480      1.324919
  O      -4.475991     -2.556404      0.699292
